<?xml version="1.0" encoding="UTF-8"?>

<!-- generated on 12/03/20 21:31:31 by Eclipse SUMO polyconvert Version 1.7.0
<configuration xmlns:xsi="http://www.w3.org/2001/XMLSchema-instance" xsi:noNamespaceSchemaLocation="http://sumo.dlr.de/xsd/polyconvertConfiguration.xsd">

    <input>
        <net-file value="StVital.net.xml"/>
        <osm-files value="osm_bbox.osm.xml"/>
        <osm.keep-full-type value="true"/>
        <type-file value="C:\Program%20Files%20(x86)\Eclipse\Sumo\data\typemap\osmPolyconvert.typ.xml"/>
    </input>

    <output>
        <output-file value="StVital.poly.xml"/>
    </output>

    <processing>
        <poi-layer-offset value="5"/>
    </processing>

    <report>
        <verbose value="true"/>
    </report>

</configuration>
-->

<additional xmlns:xsi="http://www.w3.org/2001/XMLSchema-instance" xsi:noNamespaceSchemaLocation="http://sumo.dlr.de/xsd/additional_file.xsd">
    <location netOffset="-631213.71,-5517027.17" convBoundary="-5539.49,-37906.79,18759.26,18923.71" origBoundary="-97.265679,49.451652,-96.913791,49.959891" projParameter="+proj=utm +zone=14 +ellps=WGS84 +datum=WGS84 +units=m +no_defs"/>

    <poly id="100101973" type="natural.wood" color="140,196,107" fill="1" layer="-4.00" shape="2748.670430,4374.362206 2716.624873,4373.321197 2701.192337,4372.937791 2678.501938,4374.765813 2650.304783,4390.584665 2638.204349,4395.979676 2616.853582,4402.980506 2590.073833,4406.353720 2556.442703,4403.683566 2530.038864,4406.699312 2492.640064,4422.479775 2452.744843,4442.603683 2430.228471,4459.487805 2397.548813,4477.955545 2377.233415,4487.919693 2362.779893,4491.599511 2347.615483,4494.349586 2331.970363,4494.139938 2319.690203,4492.000254 2301.716002,4481.821533 2286.915320,4469.886015 2271.984596,4462.908612 2218.422806,4454.974853 2210.635233,4449.820798 2207.474464,4443.502016 2205.806045,4436.485992 2205.249746,4429.308387 2207.620897,4422.759439 2221.806874,4422.331903 2238.907128,4423.355925 2262.884327,4421.557933 2296.015645,4414.480398 2320.534849,4405.910458 2400.560275,4364.009342 2446.601714,4341.245306 2502.621183,4317.149539 2538.981891,4306.115553 2571.483075,4302.149874 2606.657240,4302.110772 2662.211620,4304.035243 2701.985800,4311.452851 2734.983578,4324.575848 2759.022650,4335.084733 2764.743546,4342.023691 2767.001401,4355.117155 2763.794042,4364.882192 2758.133256,4370.870834 2748.670430,4374.362206"/>
    <poly id="100101977" type="natural.wood" color="140,196,107" fill="1" layer="-4.00" shape="2328.104643,4203.163277 2318.917671,4202.201522 2313.297135,4206.289412 2319.779528,4212.145456 2342.270463,4218.386968 2350.395361,4217.486993 2363.919230,4206.631359 2366.111144,4200.066905 2363.449103,4188.432006 2368.536637,4183.785884 2369.395547,4179.034980 2363.066172,4181.814875 2351.241472,4190.888280 2343.120941,4191.610380 2332.551376,4194.463245 2329.487212,4199.348631 2328.104643,4203.163277"/>
    <poly id="100101978" type="natural.wood" color="140,196,107" fill="1" layer="-4.00" shape="2156.162606,4108.735855 2163.054092,4120.464144 2159.659581,4123.873085 2145.808005,4118.024054 2143.169072,4112.997489 2136.540086,4105.491700 2133.185738,4099.713264 2132.863516,4090.338923 2129.786603,4080.907570 2135.212756,4069.839962 2145.175407,4054.290382 2160.177421,4035.750780 2171.327407,4024.279738 2177.886709,4019.480744 2184.398748,4016.883132 2192.640158,4018.555426 2195.919247,4020.104932 2194.536461,4023.930728 2190.227891,4026.760835 2183.554222,4028.620259 2181.141972,4036.825673 2177.025081,4039.471426 2174.739925,4042.540718 2173.687904,4047.831940 2167.609012,4048.048629 2164.824561,4048.903028 2161.994730,4051.591759 2158.673063,4052.054656 2154.146716,4063.689577 2149.922395,4063.407091 2147.646340,4066.109528 2148.633364,4070.717014 2145.808228,4073.216762 2148.551685,4074.018809 2149.622904,4075.513671 2147.740855,4077.124583 2143.279785,4078.849681 2141.928949,4081.385900 2146.488131,4082.967042 2150.102065,4085.815184 2141.148316,4090.543853 2143.110048,4092.984031 2147.507578,4093.826995 2144.407235,4100.179947 2147.276018,4103.187638 2148.119545,4106.323213 2150.254500,4109.323877 2156.162606,4108.735855"/>
    <poly id="100101979" type="natural.wood" color="140,196,107" fill="1" layer="-4.00" shape="2326.274938,4509.394426 2322.460218,4516.118921 2329.366665,4537.080743 2332.033133,4542.141473 2341.000858,4541.473741 2425.510994,4522.644095 2497.256892,4498.593424 2541.468312,4475.317621 2589.026418,4460.145642 2717.318253,4438.669751 2716.923762,4427.903029 2697.613918,4427.189688 2699.405630,4411.838567 2692.738547,4405.332258 2688.072180,4403.447624 2677.215808,4408.584227 2666.877640,4416.904063 2657.084309,4417.484016 2651.228480,4406.414817 2609.486624,4417.125327 2577.686952,4416.335965 2554.422603,4413.756274 2537.768366,4415.345333 2517.899256,4422.961758 2466.390784,4447.413924 2443.245925,4463.525975 2398.392144,4490.379693 2380.541418,4497.579429 2361.581373,4501.926240 2338.422122,4504.411484 2327.943254,4503.918263 2326.274938,4509.394426"/>
    <poly id="100101980" type="amenity.parking" color="184,184,179" fill="1" layer="-1.00" shape="2360.585552,4221.521630 2379.960269,4171.443250 2386.496801,4173.952398 2389.676006,4165.298865 2394.224630,4162.074402 2399.606878,4161.217764 2435.322210,4174.795551 2442.850072,4177.663065 2416.917566,4243.196752 2369.288684,4224.874247 2360.585552,4221.521630"/>
    <poly id="100101981" type="natural.wood" color="140,196,107" fill="1" layer="-4.00" shape="2389.229765,4232.954976 2381.364593,4230.924597 2374.182807,4230.935730 2378.471097,4236.181277 2391.905223,4244.045149 2402.516039,4254.041624 2408.848370,4265.945509 2412.788435,4277.979209 2412.764155,4293.763540 2402.910522,4319.994373 2396.358671,4334.949470 2396.666512,4340.819439 2400.033813,4344.896412 2402.760946,4347.511401 2410.396118,4349.814217 2420.134768,4346.217857 2455.666086,4327.698568 2494.698587,4310.768083 2535.556680,4299.445163 2580.461087,4294.997486 2614.794427,4294.336870 2669.363767,4298.550751 2691.305676,4301.954616 2704.618810,4300.182896 2733.212762,4278.556305 2746.544957,4264.148280 2773.324978,4227.503889 2787.660316,4199.961180 2787.959801,4196.887272 2784.279308,4193.258350 2779.192632,4191.485561 2755.618532,4193.224583 2738.748359,4195.363887 2715.998456,4194.342558 2698.111078,4191.951494 2675.514379,4190.555926 2655.375594,4190.734354 2624.497813,4188.988754 2594.867384,4185.694684 2577.336597,4180.821100 2525.778467,4161.342923 2506.031877,4154.990736 2488.857813,4151.105206 2480.801802,4150.382584 2478.977530,4152.562140 2477.190877,4158.157693 2466.053007,4160.706986 2462.200264,4164.015389 2452.278469,4164.826150 2445.035803,4171.932784 2442.302662,4177.393641 2444.552468,4186.493220 2440.491255,4193.567500 2442.653805,4201.252170 2436.613758,4207.454216 2434.159027,4211.264504 2425.544671,4226.101696 2422.095401,4236.939940 2418.299378,4242.608063 2414.590996,4244.740933 2389.229765,4232.954976"/>
    <poly id="100101983" type="leisure.park" color="207,245,201" fill="1" layer="-2.00" shape="2767.754879,4075.222334 2568.904095,3962.125478 2296.140208,3807.682035 2271.882852,3793.944006 2261.912479,3809.482066 2239.320204,3835.753794 2219.795868,3858.452879 2197.700435,3884.147493 2156.967913,3942.085540 2095.680968,4053.399987 2045.657779,4149.008350 2031.686450,4194.293444 2024.562478,4248.446730 2017.226237,4329.826209 2018.526816,4355.521307 2026.489547,4389.991014 2045.911895,4424.577166 2072.397618,4462.753104 2097.214262,4487.227688 2139.847007,4510.819378 2157.834044,4520.486167 2228.020336,4548.041981 2270.261447,4546.729593 2307.991987,4543.926428 2332.033133,4542.141473 2341.000858,4541.473741 2425.510994,4522.644095 2497.256892,4498.593424 2541.468312,4475.317621 2589.026418,4460.145642 2717.318253,4438.669751 2732.008490,4437.933488 2737.988251,4437.637121 2745.826938,4437.242344 2824.731944,4433.296963 2879.853247,4437.827112 2932.076375,4448.937876 3005.899223,4471.088032 3051.078004,4493.727066 3060.446548,4480.733941 3135.917596,4376.090557 3108.114690,4358.989723 3096.005240,4353.170468 3049.948670,4328.751643 2997.211814,4298.059813 2955.056536,4273.271761 2919.484662,4253.709292 2870.320836,4226.278019 2840.229158,4208.843610 2822.838211,4197.487391 2812.019821,4191.812144 2804.857506,4187.273467 2802.072863,4180.896924 2801.509951,4179.225452 2791.679255,4150.025263 2767.754879,4075.222334"/>
    <poly id="100101985" type="natural.water" color="181,209,209" fill="1" layer="-4.00" shape="2204.104693,4262.465041 2192.796957,4274.510544 2189.450758,4282.948692 2189.401940,4298.587777 2192.943809,4305.794767 2201.044571,4311.968819 2224.801299,4319.386951 2251.054134,4333.229901 2261.562546,4337.483592 2274.798359,4339.112842 2286.291427,4338.763393 2309.390039,4339.624712 2320.074896,4339.077332 2339.849279,4335.573704 2366.419899,4324.963471 2370.953391,4321.182420 2376.171050,4313.313578 2379.569641,4283.318558 2379.673035,4277.113939 2373.543993,4271.233202 2364.971067,4266.404311 2352.485601,4265.850216 2330.581622,4273.394675 2297.973629,4266.568905 2282.682160,4266.290319 2270.514080,4264.542885 2251.838597,4260.565304 2234.007921,4255.307197 2220.188047,4254.008443 2208.970333,4258.925681 2204.104693,4262.465041"/>
    <poly id="100101989" type="natural.wood" color="140,196,107" fill="1" layer="-4.00" shape="2278.006379,4480.088544 2279.843211,4487.854073 2279.951158,4498.313284 2285.316695,4504.508733 2293.853889,4509.314379 2303.357242,4512.297390 2307.127992,4516.061706 2313.415269,4537.330763 2307.991987,4543.926428 2270.261447,4546.729593 2228.020336,4548.041981 2157.834044,4520.486167 2139.847007,4510.819378 2097.214262,4487.227688 2072.397618,4462.753104 2045.911895,4424.577166 2026.489547,4389.991014 2018.526816,4355.521307 2017.226237,4329.826209 2024.562478,4248.446730 2031.686450,4194.293444 2045.657779,4149.008350 2060.603727,4143.482130 2059.833219,4159.804164 2067.290875,4163.481458 2071.562090,4154.587782 2077.953043,4134.177609 2089.043556,4125.096590 2091.477681,4130.841120 2080.129127,4157.925431 2076.945631,4174.921984 2074.380561,4196.883989 2071.691906,4238.688070 2073.854476,4262.980635 2078.167834,4289.339818 2085.599297,4324.041211 2094.370631,4341.511373 2104.955384,4360.138797 2118.543206,4376.626856 2137.600989,4395.096845 2163.429797,4408.038971 2192.406715,4419.957863 2196.685933,4425.570133 2198.405142,4438.093775 2203.213397,4451.984253 2212.516841,4463.049276 2270.799596,4473.858631 2278.006379,4480.088544"/>
    <poly id="100101990" type="natural.wood" color="140,196,107" fill="1" layer="-4.00" shape="2413.331818,4153.582059 2400.419058,4156.321094 2403.254083,4160.974441 2411.986414,4165.184394 2419.786685,4164.320969 2426.059705,4167.880412 2437.374918,4163.110639 2438.346072,4157.027649 2435.238639,4149.430797 2430.927109,4147.443956 2415.023636,4152.100010 2413.331818,4153.582059"/>
    <poly id="100101991" type="leisure.pitch" color="207,245,201" fill="1" layer="-2.00" shape="2158.052611,4081.206322 2192.018085,4032.934436 2274.093036,4090.363401 2240.127133,4138.634781 2158.052611,4081.206322"/>
    <poly id="100101991#1" type="sport.soccer" color="79,230,125" fill="1" layer="-2.00" shape="2158.052611,4081.206322 2192.018085,4032.934436 2274.093036,4090.363401 2240.127133,4138.634781 2158.052611,4081.206322"/>
    <poly id="100101992" type="natural.wood" color="140,196,107" fill="1" layer="-4.00" shape="3108.114690,4358.989723 3104.159174,4366.411016 3096.409108,4374.794550 3069.536769,4393.992610 3053.512100,4403.226863 3034.792433,4412.038073 3021.374546,4416.287025 3005.873186,4418.960138 2988.605841,4421.466964 2975.283223,4421.602507 2934.562839,4414.949092 2918.984940,4411.157487 2904.026024,4406.202181 2887.844284,4398.046149 2847.174376,4375.175835 2813.766842,4353.665551 2793.075778,4342.216233 2777.759937,4332.791687 2730.121630,4314.921760 2724.894505,4311.855143 2717.885044,4309.567425 2716.316934,4306.358122 2718.869875,4298.312146 2736.898270,4284.298881 2747.064811,4277.977222 2765.887656,4250.824082 2774.375560,4241.401647 2790.881477,4245.805450 2791.435283,4261.448459 2794.153467,4265.865520 2797.313476,4262.061794 2800.797951,4259.100437 2807.104073,4261.604379 2820.861763,4272.058165 2826.477751,4273.955398 2836.054512,4272.547178 2849.708746,4263.720539 2850.805653,4257.518366 2846.089661,4252.706747 2840.718443,4250.804457 2828.989684,4248.755210 2825.632060,4246.324554 2822.803521,4241.426400 2814.823086,4235.354499 2797.856711,4235.288666 2791.795064,4232.790814 2791.039792,4225.252204 2796.873330,4218.110987 2799.258852,4212.174445 2796.846321,4209.644940 2799.075879,4205.350875 2804.579909,4206.544486 2805.867435,4204.830024 2806.656270,4203.781729 2806.320557,4193.550412 2812.019821,4191.812144 2822.838211,4197.487391 2840.229158,4208.843610 2870.320836,4226.278019 2919.484662,4253.709292 2955.056536,4273.271761 2997.211814,4298.059813 3049.948670,4328.751643 3096.005240,4353.170468 3108.114690,4358.989723"/>
    <poly id="100101994" type="natural.wood" color="140,196,107" fill="1" layer="-4.00" shape="2197.088262,4002.235410 2196.009766,4006.268966 2201.236536,4008.500739 2206.726524,4012.018286 2222.959307,4017.614930 2226.565031,4021.085862 2241.107906,4030.411758 2251.753214,4031.776561 2254.319434,4039.738107 2250.917899,4043.135697 2260.567808,4047.790818 2271.786901,4048.068595 2284.842257,4049.748991 2290.378499,4054.591525 2303.301886,4061.018633 2307.297456,4066.178997 2311.485491,4068.507518 2318.176106,4064.802093 2324.232360,4067.532866 2324.589386,4076.941466 2329.221458,4080.226538 2332.273273,4080.780467 2340.357960,4087.321411 2347.261326,4089.261147 2358.629603,4096.584281 2371.220529,4102.191272 2380.523778,4102.533047 2386.699187,4105.389210 2389.589781,4112.157481 2394.256424,4118.980894 2399.717081,4121.930599 2409.360836,4122.759196 2416.772555,4127.993198 2420.271576,4134.309362 2427.841878,4137.789724 2470.100953,4139.660668 2490.879668,4142.990345 2522.254153,4151.410760 2548.532275,4160.761685 2596.383617,4179.691989 2612.476473,4181.615451 2653.325656,4183.452847 2658.324506,4181.229817 2658.880866,4177.950928 2644.784536,4171.260209 2620.319633,4155.257173 2611.319462,4156.913699 2598.514485,4155.305458 2586.136407,4150.993587 2579.447034,4145.076459 2570.800886,4142.036389 2569.790345,4140.131356 2573.209358,4135.165911 2572.495990,4130.565122 2568.162438,4129.756767 2562.702159,4131.145255 2556.781567,4127.594396 2547.785748,4124.434449 2546.235131,4120.513702 2534.746563,4113.409655 2526.901099,4106.518375 2519.390444,4105.275276 2512.762256,4101.818156 2505.633214,4099.405400 2502.747145,4092.169966 2494.684523,4089.389225 2489.812472,4086.209294 2482.345619,4083.198621 2481.617552,4079.187054 2478.824750,4073.121966 2469.674338,4061.971301 2464.831192,4057.624093 2464.442294,4054.444114 2451.612507,4044.247904 2440.637583,4040.215900 2430.322487,4037.724262 2429.083264,4040.396669 2425.544928,4040.308957 2421.124024,4038.085814 2421.598774,4033.158535 2418.045698,4029.310557 2406.249454,4025.024664 2400.405766,4018.071957 2399.459337,4013.576662 2393.157185,4011.184555 2386.366961,4004.675613 2378.222664,4000.246683 2375.498214,3996.063302 2368.265476,3993.180959 2362.423386,3986.450816 2370.771455,3987.013627 2379.215613,3988.635610 2384.154979,3994.041897 2393.638960,3996.390482 2398.027673,3999.914308 2408.519094,3999.940728 2435.076538,4007.640508 2440.867389,4011.788702 2450.323780,4015.538326 2456.259023,4013.571926 2459.155130,4010.829366 2456.306859,4006.998839 2446.591654,4004.399682 2443.031383,4000.551510 2427.821744,3996.069709 2417.363772,3990.048257 2401.608367,3988.712214 2391.540432,3986.115541 2379.779059,3980.417831 2367.577944,3978.235551 2353.656932,3974.019497 2343.362035,3975.644403 2338.449020,3979.048993 2330.785828,3988.603763 2328.434305,3997.834030 2326.456979,4001.544953 2326.205049,4007.067326 2328.830676,4010.302695 2340.189904,4003.765088 2349.488858,4008.934500 2356.326833,4008.870309 2360.832311,4012.619476 2360.267308,4016.254141 2355.915121,4020.840628 2352.485995,4030.867361 2349.259534,4037.361694 2344.703340,4040.307911 2335.817955,4037.618271 2330.141849,4033.484159 2327.155035,4025.656765 2319.752174,4024.995067 2314.745869,4027.229349 2309.624768,4024.510626 2300.819445,4023.235773 2296.689756,4023.489468 2294.360064,4027.191675 2294.847923,4031.319625 2296.875022,4034.896124 2302.677782,4038.566130 2305.763468,4042.402453 2306.043175,4045.346108 2300.942477,4046.743767 2295.001256,4044.015871 2292.808401,4042.192855 2288.410546,4034.096938 2289.027806,4028.350008 2294.202564,4014.372964 2298.466082,4013.655374 2311.264272,4020.201760 2318.096449,4020.370981 2321.363634,4012.231291 2314.804870,4001.022738 2305.587369,3992.562710 2277.526975,3978.708181 2271.039749,3979.137126 2262.545953,3974.577359 2257.338666,3975.627579 2251.585678,3979.245054 2248.749825,3994.092086 2243.841256,3997.029663 2244.792257,4001.636278 2242.624171,4003.462557 2237.587297,4002.281097 2229.463330,4001.968765 2227.060947,4003.666888 2224.834895,4012.777934 2218.038701,4006.502668 2216.914554,4004.238930 2219.948995,4000.554133 2220.499321,3997.508665 2217.895598,3993.094753 2213.439633,3992.283661 2210.383519,4001.496533 2197.088262,4002.235410"/>
    <poly id="100101996" type="natural.wood" color="140,196,107" fill="1" layer="-4.00" shape="2783.493737,4157.408375 2786.566789,4170.421988 2789.735163,4179.600188 2788.750545,4182.734933 2744.949729,4188.187260 2729.629260,4188.485144 2713.588768,4187.641659 2680.283582,4180.195565 2659.989711,4171.259567 2640.695652,4161.758900 2624.493189,4149.175843 2613.731896,4135.971477 2583.659638,4095.668106 2570.056415,4075.474182 2558.835982,4062.781373 2529.881779,4038.001800 2507.281076,4021.945452 2451.621452,3988.450232 2441.682870,3987.603137 2440.078352,3982.368460 2441.901720,3975.872763 2441.527999,3969.467209 2434.866246,3967.355364 2432.746079,3961.729692 2429.667383,3964.289756 2423.657678,3963.161875 2418.303066,3957.088944 2408.747487,3950.077598 2401.104842,3945.149367 2393.234810,3943.007630 2388.472183,3940.631437 2384.234806,3937.967917 2380.113724,3933.805547 2364.849313,3928.910990 2354.094839,3927.587763 2348.995629,3923.401185 2346.303770,3919.352116 2329.645277,3912.921391 2320.184640,3908.170728 2306.667800,3896.634121 2278.900206,3879.071457 2265.560216,3867.361356 2261.349504,3866.522928 2259.425707,3866.909136 2257.308538,3864.932277 2255.051514,3857.267612 2257.411424,3853.799738 2264.186261,3851.642553 2270.020722,3852.587928 2273.926467,3856.733752 2283.669710,3857.342087 2286.680127,3862.188810 2292.144376,3864.715769 2298.581800,3872.406106 2305.499702,3875.514152 2313.643865,3881.411322 2316.779521,3888.463711 2325.994292,3888.324854 2333.098589,3883.906627 2341.068664,3881.723526 2349.294314,3876.776899 2355.965531,3867.764896 2357.765109,3861.936024 2370.193355,3843.344318 2378.681540,3843.198670 2381.474465,3839.975179 2384.977768,3831.607770 2392.599524,3833.320624 2396.060826,3836.231889 2406.814946,3834.963298 2411.329085,3838.367873 2411.128220,3846.472273 2409.539668,3858.302183 2419.552452,3863.133431 2422.887075,3866.508782 2421.620239,3870.003682 2417.621505,3869.904568 2405.179852,3862.899570 2396.755888,3860.454881 2382.801331,3852.934114 2373.207940,3859.637762 2368.868779,3868.340435 2363.648358,3874.562879 2363.421428,3878.784366 2362.236133,3883.927646 2358.348292,3888.648002 2352.226795,3893.190660 2355.370651,3894.681292 2360.923038,3894.229283 2362.612345,3897.207865 2362.769739,3905.087537 2364.680154,3909.017136 2371.480519,3910.476011 2376.398178,3916.471319 2385.493340,3915.639916 2388.964595,3913.501141 2396.072049,3907.214247 2401.161608,3906.272479 2400.953426,3924.254788 2403.471323,3931.836998 2405.641045,3934.593899 2411.455421,3937.797101 2420.205755,3941.295562 2432.594665,3945.484929 2438.117796,3946.211418 2441.972465,3947.474996 2445.557442,3954.972444 2450.189554,3958.257619 2458.850672,3960.708279 2464.733619,3970.721118 2473.978791,3968.480841 2480.914251,3969.131157 2495.002488,3976.177182 2503.283674,3984.369593 2509.528929,3984.413257 2514.918169,3985.603713 2519.813742,3987.838707 2526.953200,3994.478850 2533.708054,4007.338895 2538.935587,4010.405318 2545.378954,4011.744322 2549.614887,4007.499941 2553.035569,3997.829075 2558.478816,3992.201909 2561.375208,3984.520357 2564.565729,3969.915858 2568.904095,3962.125478 2767.754879,4075.222334 2791.679255,4150.025263 2801.509951,4179.225452 2797.999092,4179.483019 2795.117705,4176.708255 2791.085321,4158.865215 2785.979547,4146.279405 2751.571704,4122.386431 2718.713690,4107.353530 2695.218329,4094.900556 2635.144274,4060.737511 2630.289662,4056.857072 2631.311504,4063.234244 2652.931752,4075.284398 2679.586892,4093.221921 2678.653285,4097.781823 2671.567796,4102.889752 2666.520495,4111.696979 2667.149305,4119.699629 2672.900590,4130.065420 2691.624547,4130.652834 2704.071458,4127.558070 2706.630162,4124.206562 2710.953583,4120.787654 2719.800670,4120.662600 2736.001050,4132.456092 2749.343003,4136.202689 2773.401525,4149.726690 2783.493737,4157.408375"/>
    <poly id="100101997" type="amenity.parking" color="184,184,179" fill="1" layer="-1.00" shape="2214.693588,3965.750678 2211.744258,3956.400302 2208.862434,3947.229584 2311.616288,3915.044479 2313.578170,3921.255747 2326.922783,3917.081064 2328.063378,3920.713482 2330.799191,3929.380076 2214.693588,3965.750678"/>
    <poly id="100101998" type="natural.wood" color="140,196,107" fill="1" layer="-4.00" shape="2098.651869,4140.162414 2086.152466,4184.104416 2082.981670,4215.428933 2082.470150,4243.682251 2084.092398,4267.416388 2089.536855,4300.411182 2097.557403,4326.127881 2105.720247,4345.796683 2121.974148,4366.210702 2138.810761,4385.170827 2163.147253,4398.810213 2196.744776,4410.109274 2232.699865,4415.404350 2271.620871,4412.508001 2297.075908,4403.048964 2332.344395,4391.619483 2356.405623,4379.178332 2367.332045,4369.170526 2384.434292,4340.215920 2398.581939,4311.733203 2404.866686,4288.395127 2402.883928,4272.004851 2393.489138,4257.077215 2382.529731,4246.337937 2369.241530,4240.135178 2364.140272,4245.337157 2363.707848,4255.237907 2378.664009,4268.467848 2387.507255,4283.003572 2387.431000,4301.178268 2382.213933,4318.313391 2372.716156,4330.192032 2333.164142,4343.717693 2315.201796,4347.855801 2300.068683,4349.327543 2279.009229,4344.578874 2253.313465,4341.372966 2232.399257,4330.754623 2213.984942,4323.502059 2193.886539,4317.131170 2184.481035,4310.468759 2180.173461,4298.437275 2181.140396,4281.753009 2185.153902,4268.447950 2195.975212,4255.122261 2203.860374,4249.076864 2220.765540,4242.887647 2238.587510,4244.430087 2255.182014,4251.081469 2268.583719,4252.703677 2282.233480,4251.573317 2297.683511,4252.133926 2324.124274,4247.649567 2328.309388,4242.246873 2322.113443,4224.828980 2300.506683,4220.077814 2278.118695,4216.942615 2260.002541,4212.456036 2254.588460,4207.916898 2245.472257,4204.387384 2232.111155,4201.119896 2226.684235,4204.656469 2204.538045,4206.867067 2201.550605,4201.097662 2197.959338,4197.337877 2191.021133,4194.774523 2188.310427,4177.821269 2180.137484,4173.391923 2174.325650,4177.653204 2168.911464,4173.114154 2167.407314,4167.014379 2161.539976,4165.957048 2156.898404,4160.146747 2148.823243,4159.034809 2142.616624,4156.856711 2141.044238,4153.513999 2142.661200,4147.491441 2140.871640,4138.091924 2126.346759,4137.354430 2119.403771,4134.980163 2125.425132,4129.811841 2132.795903,4129.437956 2125.162849,4125.578250 2122.822482,4123.317821 2121.997367,4119.437401 2111.149600,4118.991129 2106.305539,4121.073875 2107.798820,4127.907541 2106.015213,4132.813591 2101.732112,4134.910213 2098.651869,4140.162414"/>
    <poly id="100101999" type="natural.wood" color="140,196,107" fill="1" layer="-4.00" shape="2202.687122,4289.794911 2200.461203,4290.474003 2200.107416,4296.627924 2202.970555,4299.857991 2208.856235,4302.784654 2218.790638,4303.486629 2226.005757,4307.647607 2243.972427,4315.834666 2246.230277,4316.190912 2252.291875,4314.917119 2258.254340,4305.731734 2264.297992,4302.277211 2273.625501,4300.172144 2287.013710,4298.556993 2289.357432,4295.155481 2289.355362,4289.137360 2285.689483,4284.908456 2279.240520,4280.610635 2264.944948,4279.055255 2241.159565,4280.346310 2234.202822,4281.152999 2230.905555,4283.251673 2212.693546,4284.680823 2205.004967,4287.727600 2202.687122,4289.794911"/>
    <poly id="100102000" type="natural.wood" color="140,196,107" fill="1" layer="-4.00" shape="2331.342145,4282.779904 2335.178933,4281.851549 2339.898185,4282.190946 2347.265949,4286.578350 2350.328580,4293.951561 2350.257863,4302.904611 2348.243434,4308.116342 2344.332695,4310.577964 2337.858249,4313.120684 2327.335282,4314.973546 2320.867391,4314.056892 2315.935329,4312.432983 2313.731454,4309.897745 2311.683860,4299.891069 2314.508014,4296.267863 2331.342145,4282.779904"/>
    <poly id="100144387" type="building.yes" color="255,230,230" fill="1" layer="-1.00" shape="2918.701926,4777.898720 2924.138130,4779.769359 2929.131991,4765.298906 2923.695497,4763.439380 2918.701926,4777.898720"/>
    <poly id="100144388" type="building.yes" color="255,230,230" fill="1" layer="-1.00" shape="2875.370301,4841.606915 2886.233196,4845.726096 2883.254021,4853.550038 2872.391140,4849.430863 2875.370301,4841.606915"/>
    <poly id="100152670" type="landuse.forest" color="140,196,107" fill="1" layer="-3.00" shape="2713.312499,5214.025696 2727.455615,5215.823315 2746.035818,5228.988785 2748.416810,5241.740492 2777.813307,5254.785622 2815.403609,5263.807564 2809.980968,5280.214146 2802.362830,5286.543374 2801.171256,5293.088048 2805.205185,5296.358717 2812.863164,5295.948472 2828.902258,5281.964014 3009.064806,5091.154408 3043.849578,5043.297490 3058.825746,5016.583516 3095.150636,4926.304743 3106.997157,4888.633566 3107.561004,4883.908770 3111.904137,4847.641348 3104.889158,4769.097558 3077.521679,4699.368632 3060.624588,4671.738247 3014.772898,4623.307895 2985.777287,4604.442594 2945.576730,4587.367631 2943.564602,4589.575730 2936.973409,4596.809167 2975.740856,4620.867659 2968.507102,4632.234329 2971.945500,4664.646386 3008.723300,4706.743307 2987.575259,4718.920372 2963.210410,4721.005798 2929.016582,4745.940207 2908.500724,4732.726004 2893.851295,4747.757153 2895.868205,4775.139091 2885.253464,4798.346701 2868.819015,4776.390583 2882.112867,4738.621492 2878.433384,4731.210338 2857.426784,4738.007383 2840.347304,4711.018385 2817.861827,4715.075666 2812.172521,4695.311410 2803.893336,4655.848863 2812.020530,4639.498392 2815.477543,4625.479088 2819.382326,4609.657704 2820.606671,4604.693462 2818.678871,4599.750953 2808.634059,4573.993799 2788.523251,4575.418256 2793.263980,4602.089157 2796.192489,4609.036611 2803.109910,4625.427424 2790.152496,4634.338213 2777.929986,4629.028551 2758.477559,4650.870932 2741.032721,4653.896932 2758.348637,4625.082247 2769.639416,4605.350779 2754.539671,4591.893617 2733.173411,4597.514200 2719.809230,4579.939888 2648.182527,4592.521705 2660.649455,4644.780465 2666.381254,4667.493452 2667.946350,4673.717278 2623.174527,4686.566019 2613.303809,4689.413407 2659.666197,4774.172817 2720.108152,4884.689823 2802.630556,4943.050988 2904.337008,5033.916974 2795.779811,5165.027565 2783.006219,5178.459252 2765.797443,5192.314656 2746.051936,5202.580736 2713.312499,5214.025696"/>
    <poly id="100152702" type="landuse.forest" color="140,196,107" fill="1" layer="-3.00" shape="3089.494033,4895.750616 3064.845338,4927.451833 3037.607459,4909.442015 3052.431840,4881.901054 3074.056222,4876.866647 3089.494033,4895.750616"/>
    <poly id="100152709" type="landuse.forest" color="140,196,107" fill="1" layer="-3.00" shape="2836.021200,4937.318199 2793.996469,4886.048131 2781.049106,4897.183974 2778.026438,4924.129090 2802.382445,4939.718733 2836.021200,4937.318199"/>
    <poly id="100222978" type="amenity.toilets" color="237,199,199" fill="1" layer="-1.00" shape="2309.848721,4048.009998 2313.956835,4050.369913 2316.798116,4045.478996 2312.683083,4043.107783 2309.848721,4048.009998"/>
    <poly id="100222978#1" type="building.yes" color="255,230,230" fill="1" layer="-1.00" shape="2309.848721,4048.009998 2313.956835,4050.369913 2316.798116,4045.478996 2312.683083,4043.107783 2309.848721,4048.009998"/>
    <poly id="100222979" type="amenity.parking" color="184,184,179" fill="1" layer="-1.00" shape="2649.277316,4397.767506 2651.044871,4401.348834 2658.539110,4416.563482 2671.361384,4410.496757 2680.812055,4403.434144 2698.202976,4395.367402 2718.724907,4395.087446 2716.624873,4373.321197 2701.192337,4372.937791 2681.110494,4376.065371 2662.874998,4387.715373 2649.277316,4397.767506"/>
    <poly id="100222980" type="amenity.shelter" color="237,199,199" fill="1" layer="-1.00" shape="2356.405209,4257.804582 2356.375370,4250.005934 2329.719203,4250.113077 2329.749081,4257.911724 2356.405209,4257.804582"/>
    <poly id="100222980#1" type="building.yes" color="255,230,230" fill="1" layer="-1.00" shape="2356.405209,4257.804582 2356.375370,4250.005934 2329.719203,4250.113077 2329.749081,4257.911724 2356.405209,4257.804582"/>
    <poly id="100222981" type="leisure.garden" color="207,245,201" fill="1" layer="-2.00" shape="2139.275881,4319.829061 2132.990109,4317.949354 2131.427256,4311.314186 2133.518941,4308.206723 2142.407604,4309.294276 2147.177275,4314.284567 2139.275881,4319.829061"/>
    <poly id="100317191" type="building.yes" color="255,230,230" fill="1" layer="-1.00" shape="2643.220875,3913.689680 2641.467078,3917.372675 2647.135819,3920.060816 2648.889344,3916.388940 2643.220875,3913.689680"/>