<?xml version="1.0" encoding="UTF-8"?>

<!-- generated on 12/03/20 21:31:36 by Eclipse SUMO duarouter Version 1.7.0
<configuration xmlns:xsi="http://www.w3.org/2001/XMLSchema-instance" xsi:noNamespaceSchemaLocation="http://sumo.dlr.de/xsd/duarouterConfiguration.xsd">

    <input>
        <net-file value="C:\Users\Samuel\Sumo\2020-12-03-21-31-22\StVital.net.xml"/>
        <route-files value="C:\Users\Samuel\Sumo\2020-12-03-21-31-22\StVital.passenger.trips.xml"/>
    </input>

    <output>
        <output-file value="C:\Users\Samuel\Sumo\2020-12-03-21-31-22\StVital.passenger.trips.xml.tmp"/>
        <write-trips value="true"/>
    </output>

    <time>
        <begin value="0"/>
        <end value="3600"/>
    </time>

    <report>
        <no-warnings value="true"/>
        <ignore-errors value="true"/>
        <no-step-log value="true"/>
    </report>

</configuration>
-->

<routes xmlns:xsi="http://www.w3.org/2001/XMLSchema-instance" xsi:noNamespaceSchemaLocation="http://sumo.dlr.de/xsd/routes_file.xsd">
    <vType id="veh_passenger" vClass="passenger"/>
    <trip id="veh0" type="veh_passenger" depart="0.00" departLane="best" from="139284206#1" to="-130655171#3"/>
    <trip id="veh2" type="veh_passenger" depart="1.65" departLane="best" from="32868034#1" to="155378627"/>
    <trip id="veh3" type="veh_passenger" depart="2.48" departLane="best" from="473578220" to="-135883204"/>
    <trip id="veh4" type="veh_passenger" depart="3.31" departLane="best" from="-139284249#13" to="139283130#11"/>
    <trip id="veh5" type="veh_passenger" depart="4.14" departLane="best" from="-130655129#0" to="-139284193#8"/>
    <trip id="veh6" type="veh_passenger" depart="4.96" departLane="best" from="139284285#2" to="139283300#0"/>
    <trip id="veh7" type="veh_passenger" depart="5.79" departLane="best" from="-139284249#21" to="139283610#5"/>
    <trip id="veh8" type="veh_passenger" depart="6.62" departLane="best" from="41212224#0" to="-100317222#8"/>
    <trip id="veh10" type="veh_passenger" depart="8.27" departLane="best" from="-41208868#7" to="-139283486#26"/>
    <trip id="veh11" type="veh_passenger" depart="9.10" departLane="best" from="511051550#1" to="-475258508#0"/>
    <trip id="veh12" type="veh_passenger" depart="9.93" departLane="best" from="473352944#11" to="139283752#0"/>
    <trip id="veh13" type="veh_passenger" depart="10.76" departLane="best" from="41209074#0" to="327907938#21"/>
    <trip id="veh16" type="veh_passenger" depart="13.24" departLane="best" from="453140311#1" to="139284049#1"/>
    <trip id="veh17" type="veh_passenger" depart="14.07" departLane="best" from="473355222#3" to="139283499#0"/>
    <trip id="veh18" type="veh_passenger" depart="14.89" departLane="best" from="289430974" to="-135882771#1"/>
    <trip id="veh19" type="veh_passenger" depart="15.72" departLane="best" departSpeed="max" from="-139284526#1" to="-41204960#0"/>
    <trip id="veh22" type="veh_passenger" depart="18.20" departLane="best" from="139284184#1" to="130655037"/>
    <trip id="veh25" type="veh_passenger" depart="20.69" departLane="best" departSpeed="max" from="139284275#0" to="139283865"/>
    <trip id="veh26" type="veh_passenger" depart="21.51" departLane="best" from="-139283486#38" to="327907938#20"/>
    <trip id="veh27" type="veh_passenger" depart="22.34" departLane="best" departSpeed="max" from="-139283474#1" to="130655171#6"/>
    <trip id="veh28" type="veh_passenger" depart="23.17" departLane="best" from="88170971#13" to="139284285#2"/>
    <trip id="veh30" type="veh_passenger" depart="24.82" departLane="best" from="473352719#7" to="36836499#0-AddedOnRampEdge"/>
    <trip id="veh31" type="veh_passenger" depart="25.65" departLane="best" departSpeed="max" from="-139284574" to="-130655233#0"/>
    <trip id="veh33" type="veh_passenger" depart="27.31" departLane="best" from="-139284171#1" to="478034424"/>
    <trip id="veh34" type="veh_passenger" depart="28.13" departLane="best" from="473578183#0" to="-41212173#0"/>
    <trip id="veh35" type="veh_passenger" depart="28.96" departLane="best" departSpeed="max" from="139284644#0" to="130655297#0"/>
    <trip id="veh36" type="veh_passenger" depart="29.79" departLane="best" from="473731403" to="135883135#0"/>
    <trip id="veh38" type="veh_passenger" depart="31.44" departLane="best" from="139283361#5" to="-32868408#7"/>
    <trip id="veh39" type="veh_passenger" depart="32.27" departLane="best" from="139283486#27" to="473578235#1"/>
    <trip id="veh40" type="veh_passenger" depart="33.10" departLane="best" from="130655091#1" to="-139284661#0"/>
    <trip id="veh41" type="veh_passenger" depart="33.93" departLane="best" from="88170971#8" to="139283134#1"/>
    <trip id="veh42" type="veh_passenger" depart="34.75" departLane="best" from="-135883142#0" to="-135882789#2"/>
    <trip id="veh43" type="veh_passenger" depart="35.58" departLane="best" from="-139283127#1" to="139284189"/>
    <trip id="veh44" type="veh_passenger" depart="36.41" departLane="best" from="41205230#2" to="135882946#5"/>
    <trip id="veh46" type="veh_passenger" depart="38.06" departLane="best" from="88170971#6" to="139283270#3"/>
    <trip id="veh47" type="veh_passenger" depart="38.89" departLane="best" from="588408673#28" to="473553097#4"/>
    <trip id="veh49" type="veh_passenger" depart="40.55" departLane="best" from="171139946#1" to="139283282#1"/>
    <trip id="veh51" type="veh_passenger" depart="42.20" departLane="best" from="-139283130#13" to="135883006#1"/>
    <trip id="veh53" type="veh_passenger" depart="43.86" departLane="best" from="136144531#3" to="-139283670#1"/>
    <trip id="veh54" type="veh_passenger" depart="44.68" departLane="best" from="-32868411#10" to="139284275#1"/>
    <trip id="veh55" type="veh_passenger" depart="45.51" departLane="best" from="139283651#1" to="-139283486#14"/>
    <trip id="veh59" type="veh_passenger" depart="48.82" departLane="best" from="-130655057#0" to="475251786#1"/>
    <trip id="veh60" type="veh_passenger" depart="49.65" departLane="best" from="473578183#5" to="473319535#5"/>
    <trip id="veh61" type="veh_passenger" depart="50.48" departLane="best" departSpeed="max" from="-32868989" to="-135882900#1"/>
    <trip id="veh62" type="veh_passenger" depart="51.30" departLane="best" from="473578183#4" to="510991255"/>
    <trip id="veh63" type="veh_passenger" depart="52.13" departLane="best" departSpeed="max" from="-135883109" to="13788641"/>
    <trip id="veh66" type="veh_passenger" depart="54.61" departLane="best" from="135883075-AddedOnRampEdge" to="139283367#1"/>
    <trip id="veh68" type="veh_passenger" depart="56.27" departLane="best" from="130655310#0" to="-139284392#1"/>
    <trip id="veh69" type="veh_passenger" depart="57.10" departLane="best" from="139283257#2" to="327907938#22"/>
    <trip id="veh70" type="veh_passenger" depart="57.92" departLane="best" from="-139284030#0" to="-41208868#7"/>
    <trip id="veh71" type="veh_passenger" depart="58.75" departLane="best" from="88170971#4" to="139284622"/>
    <trip id="veh73" type="veh_passenger" depart="60.41" departLane="best" from="-139283150#1" to="-149505043"/>
    <trip id="veh74" type="veh_passenger" depart="61.23" departLane="best" from="-41207943#1" to="139283610#1"/>
    <trip id="veh75" type="veh_passenger" depart="62.06" departLane="best" departSpeed="max" from="-139284596" to="-139284661#0"/>
    <trip id="veh78" type="veh_passenger" depart="64.54" departLane="best" from="473354939#2" to="-135883004#2"/>
    <trip id="veh79" type="veh_passenger" depart="65.37" departLane="best" departSpeed="max" from="-139284661#1" to="149505233"/>
    <trip id="veh80" type="veh_passenger" depart="66.20" departLane="best" from="-139284199#4" to="-139283285#0"/>
    <trip id="veh81" type="veh_passenger" depart="67.03" departLane="best" from="475251797#1" to="139283486#18"/>
    <trip id="veh83" type="veh_passenger" depart="68.68" departLane="best" from="41209074#1" to="-139284049#3"/>
    <trip id="veh84" type="veh_passenger" depart="69.51" departLane="best" from="-135891624#12" to="135882978"/>
    <trip id="veh85" type="veh_passenger" depart="70.34" departLane="best" from="130655310#1" to="135886995#2"/>
    <trip id="veh86" type="veh_passenger" depart="71.16" departLane="best" from="32845627#0-AddedOnRampEdge" to="155378617#1"/>
    <trip id="veh87" type="veh_passenger" depart="71.99" departLane="best" departSpeed="max" from="67845934" to="-139283094#1"/>
    <trip id="veh88" type="veh_passenger" depart="72.82" departLane="best" departSpeed="max" from="130655132" to="-588696598#0"/>
    <trip id="veh89" type="veh_passenger" depart="73.65" departLane="best" from="473355222#3" to="-251422238#0"/>
    <trip id="veh90" type="veh_passenger" depart="74.47" departLane="best" departSpeed="max" from="-139283642#7" to="135883064#4"/>
    <trip id="veh92" type="veh_passenger" depart="76.13" departLane="best" from="-149505224" to="473794200#2"/>
    <trip id="veh94" type="veh_passenger" depart="77.78" departLane="best" from="139283283#3" to="-135882820"/>
    <trip id="veh96" type="veh_passenger" depart="79.44" departLane="best" from="588408673#20" to="473824972#1"/>
    <trip id="veh97" type="veh_passenger" depart="80.27" departLane="best" from="473352944#14" to="-139283588#0"/>
    <trip id="veh98" type="veh_passenger" depart="81.09" departLane="best" from="135883176#3" to="-139284528#1"/>
    <trip id="veh99" type="veh_passenger" depart="81.92" departLane="best" from="130655116" to="-135882911"/>
    <trip id="veh100" type="veh_passenger" depart="82.75" departLane="best" from="100222983#0" to="88170971#12"/>
    <trip id="veh101" type="veh_passenger" depart="83.58" departLane="best" from="-171145298#4" to="39218911#5"/>
    <trip id="veh102" type="veh_passenger" depart="84.40" departLane="best" from="135883001#2" to="135882946#6"/>
    <trip id="veh103" type="veh_passenger" depart="85.23" departLane="best" from="511051550#1" to="89383739"/>
    <trip id="veh105" type="veh_passenger" depart="86.89" departLane="best" from="-139283367#1" to="-41205226#0"/>
    <trip id="veh106" type="veh_passenger" depart="87.71" departLane="best" from="588408673#20" to="139283514#0"/>
    <trip id="veh107" type="veh_passenger" depart="88.54" departLane="best" from="139283271#0" to="32868404#1"/>
    <trip id="veh108" type="veh_passenger" depart="89.37" departLane="best" from="-135882798#1" to="139283531#9"/>
    <trip id="veh111" type="veh_passenger" depart="91.85" departLane="best" from="-135883013#1" to="-139284009#0"/>
    <trip id="veh112" type="veh_passenger" depart="92.68" departLane="best" from="139283531#15" to="155378620#2"/>
    <trip id="veh113" type="veh_passenger" depart="93.51" departLane="best" departSpeed="max" from="-139284644#1" to="-139283257#2"/>
    <trip id="veh114" type="veh_passenger" depart="94.33" departLane="best" from="473578216-AddedOffRampEdge" to="-251422236#0"/>
    <trip id="veh115" type="veh_passenger" depart="95.16" departLane="best" from="139283531#13" to="139284054#1"/>
    <trip id="veh116" type="veh_passenger" depart="95.99" departLane="best" from="130655275#2" to="139283531#6"/>
    <trip id="veh117" type="veh_passenger" depart="96.82" departLane="best" from="139283130#8" to="475251802#0"/>
    <trip id="veh118" type="veh_passenger" depart="97.64" departLane="best" from="-139284049#1" to="289444197#6"/>
    <trip id="veh119" type="veh_passenger" depart="98.47" departLane="best" departSpeed="max" from="-139284679#1" to="130655297#1"/>
    <trip id="veh120" type="veh_passenger" depart="99.30" departLane="best" from="155378615#2" to="-41205232#2"/>
    <trip id="veh128" type="veh_passenger" depart="105.92" departLane="best" from="139283670#1" to="88170971#18"/>
    <trip id="veh129" type="veh_passenger" depart="106.75" departLane="best" departSpeed="max" from="139284582" to="-129850121#0"/>
    <trip id="veh130" type="veh_passenger" depart="107.57" departLane="best" from="41214386#4" to="-41205232#0"/>
    <trip id="veh132" type="veh_passenger" depart="109.23" departLane="best" from="-139283270#4" to="-139283227#3"/>
    <trip id="veh133" type="veh_passenger" depart="110.06" departLane="best" departSpeed="max" from="-136144534#1" to="139283446#0"/>
    <trip id="veh135" type="veh_passenger" depart="111.71" departLane="best" from="327907938#10" to="-139284249#11"/>
    <trip id="veh136" type="veh_passenger" depart="112.54" departLane="best" from="139284157#2" to="-32868410#2"/>
    <trip id="veh138" type="veh_passenger" depart="114.19" departLane="best" from="473352944#0" to="-136144526"/>
    <trip id="veh141" type="veh_passenger" depart="116.68" departLane="best" from="139284193#6" to="-32868408#3"/>
    <trip id="veh142" type="veh_passenger" depart="117.50" departLane="best" from="32868404#0" to="139283375#8"/>
    <trip id="veh144" type="veh_passenger" depart="119.16" departLane="best" from="-135882969#1" to="473578214"/>
    <trip id="veh145" type="veh_passenger" depart="119.99" departLane="best" from="473597493" to="139283302#3"/>
    <trip id="veh146" type="veh_passenger" depart="120.81" departLane="best" from="473319535#4" to="139283531#16"/>
    <trip id="veh147" type="veh_passenger" depart="121.64" departLane="best" from="-139283294#1" to="-139283277#0"/>
    <trip id="veh148" type="veh_passenger" depart="122.47" departLane="best" from="-32868990" to="473578235#1-AddedOnRampEdge"/>
    <trip id="veh149" type="veh_passenger" depart="123.30" departLane="best" from="41205233#6" to="473553097#4"/>
    <trip id="veh150" type="veh_passenger" depart="124.12" departLane="best" from="473578232" to="-139284275#0"/>
    <trip id="veh151" type="veh_passenger" depart="124.95" departLane="best" from="-149505217" to="-139283130#19"/>
    <trip id="veh153" type="veh_passenger" depart="126.61" departLane="best" from="130655171#4" to="139284054#6"/>
    <trip id="veh154" type="veh_passenger" depart="127.43" departLane="best" from="-139283367#0" to="475251789#0"/>
    <trip id="veh156" type="veh_passenger" depart="129.09" departLane="best" from="41212224#8" to="473578197"/>
    <trip id="veh157" type="veh_passenger" depart="129.92" departLane="best" from="-130655106#5" to="327907938#7"/>
    <trip id="veh158" type="veh_passenger" depart="130.74" departLane="best" from="-41205274#0" to="475251791#1"/>
    <trip id="veh159" type="veh_passenger" depart="131.57" departLane="best" from="41205375#9" to="473578173#1"/>
    <trip id="veh160" type="veh_passenger" depart="132.40" departLane="best" from="41212224#8" to="-32868411#7"/>
    <trip id="veh161" type="veh_passenger" depart="133.22" departLane="best" departSpeed="max" from="41205220" to="-139283137#8"/>
    <trip id="veh162" type="veh_passenger" depart="134.05" departLane="best" from="473578176#1" to="473355222#3"/>
    <trip id="veh163" type="veh_passenger" depart="134.88" departLane="best" from="-139284249#6" to="41213358#0"/>
    <trip id="veh164" type="veh_passenger" depart="135.71" departLane="best" from="135883032#0" to="-41205287#2"/>
    <trip id="veh165" type="veh_passenger" depart="136.53" departLane="best" from="41205233#2" to="-149505217"/>
    <trip id="veh166" type="veh_passenger" depart="137.36" departLane="best" from="-130655106#0" to="-139284058#14"/>
    <trip id="veh167" type="veh_passenger" depart="138.19" departLane="best" from="-41205232#2" to="473578175#0"/>
    <trip id="veh169" type="veh_passenger" depart="139.84" departLane="best" from="139284249#0" to="130655325#2"/>
    <trip id="veh171" type="veh_passenger" depart="141.50" departLane="best" from="475258505" to="-139283227#3"/>
    <trip id="veh172" type="veh_passenger" depart="142.33" departLane="best" from="588408673#26" to="-139283670#0"/>
    <trip id="veh173" type="veh_passenger" depart="143.15" departLane="best" departSpeed="max" from="588408673#0" to="-32868411#15"/>
    <trip id="veh174" type="veh_passenger" depart="143.98" departLane="best" from="-139283094#0" to="135883006#0"/>
    <trip id="veh175" type="veh_passenger" depart="144.81" departLane="best" from="32845627#0-AddedOnRampEdge" to="-41209074#1"/>
    <trip id="veh176" type="veh_passenger" depart="145.64" departLane="best" from="139283631#0" to="139283137#11"/>
    <trip id="veh177" type="veh_passenger" depart="146.46" departLane="best" from="100317855#1" to="139283486#9"/>
    <trip id="veh181" type="veh_passenger" depart="149.77" departLane="best" from="-475258508#6" to="-135883001#2"/>
    <trip id="veh182" type="veh_passenger" depart="150.60" departLane="best" departSpeed="max" from="149505043" to="-449240214#1"/>
    <trip id="veh184" type="veh_passenger" depart="152.26" departLane="best" from="327907938#15" to="-41205233#1"/>
    <trip id="veh185" type="veh_passenger" depart="153.08" departLane="best" departSpeed="max" from="-32868992" to="135882810"/>
    <trip id="veh186" type="veh_passenger" depart="153.91" departLane="best" departSpeed="max" from="130655132" to="-41205222#2"/>
    <trip id="veh187" type="veh_passenger" depart="154.74" departLane="best" from="-139283233#1" to="135882946#1"/>
    <trip id="veh188" type="veh_passenger" depart="155.57" departLane="best" from="475258507#4" to="155378628#1"/>
    <trip id="veh189" type="veh_passenger" depart="156.39" departLane="best" from="473578235#1-AddedOnRampEdge" to="139284030#1"/>
    <trip id="veh190" type="veh_passenger" depart="157.22" departLane="best" from="-32868411#6" to="139283361#2"/>
    <trip id="veh191" type="veh_passenger" depart="158.05" departLane="best" from="-100145027#1" to="-39218911#1"/>
    <trip id="veh192" type="veh_passenger" depart="158.88" departLane="best" from="135882798#0" to="139283520#1"/>
    <trip id="veh193" type="veh_passenger" depart="159.70" departLane="best" from="139284610#0" to="135883197"/>
    <trip id="veh195" type="veh_passenger" depart="161.36" departLane="best" from="135883064#7" to="473597495#0"/>
    <trip id="veh196" type="veh_passenger" depart="162.19" departLane="best" from="41205233#5" to="-139283610#7"/>
    <trip id="veh197" type="veh_passenger" depart="163.01" departLane="best" from="-135883103" to="139283150#1"/>
    <trip id="veh198" type="veh_passenger" depart="163.84" departLane="best" departSpeed="max" from="139284111" to="-473824972#0"/>
    <trip id="veh199" type="veh_passenger" depart="164.67" departLane="best" departSpeed="max" from="41220803#0" to="32868406#6"/>
    <trip id="veh200" type="veh_passenger" depart="165.50" departLane="best" from="155378617#2" to="-149505043"/>
    <trip id="veh201" type="veh_passenger" depart="166.32" departLane="best" from="-139283943#1" to="-130655171#0"/>
    <trip id="veh203" type="veh_passenger" depart="167.98" departLane="best" from="473352944#16" to="-135883013#2"/>
    <trip id="veh204" type="veh_passenger" depart="168.81" departLane="best" from="130655256#0" to="139284199#5"/>
    <trip id="veh207" type="veh_passenger" depart="171.29" departLane="best" departSpeed="max" from="139284644#0" to="-100317222#4"/>
    <trip id="veh209" type="veh_passenger" depart="172.94" departLane="best" departSpeed="max" from="-136144534#1" to="135882947#0"/>
    <trip id="veh210" type="veh_passenger" depart="173.77" departLane="best" departSpeed="max" from="-139283531#17" to="550607470"/>
    <trip id="veh211" type="veh_passenger" depart="174.60" departLane="best" from="139283127#2" to="-135882820"/>
    <trip id="veh212" type="veh_passenger" depart="175.43" departLane="best" from="-149505215" to="473352944#7"/>
    <trip id="veh214" type="veh_passenger" depart="177.08" departLane="best" from="149505201" to="88170971#19"/>
    <trip id="veh215" type="veh_passenger" depart="177.91" departLane="best" from="139283531#17" to="511051538"/>
    <trip id="veh216" type="veh_passenger" depart="178.74" departLane="best" from="473578216-AddedOnRampEdge" to="139283922#2"/>
    <trip id="veh217" type="veh_passenger" depart="179.56" departLane="best" from="327907938#13" to="139283128"/>
    <trip id="veh218" type="veh_passenger" depart="180.39" departLane="best" departSpeed="max" from="453140313" to="139283361#1"/>
    <trip id="veh219" type="veh_passenger" depart="181.22" departLane="best" from="473578226#1-AddedOffRampEdge" to="32868041#0"/>
    <trip id="veh220" type="veh_passenger" depart="182.05" departLane="best" from="135883075" to="-32868405#6"/>
    <trip id="veh226" type="veh_passenger" depart="187.01" departLane="best" from="139283266#3" to="-139283299#2"/>
    <trip id="veh228" type="veh_passenger" depart="188.67" departLane="best" from="289432760#3" to="-135882970#0"/>
    <trip id="veh229" type="veh_passenger" depart="189.49" departLane="best" from="130655188#1" to="139283294#0"/>
    <trip id="veh230" type="veh_passenger" depart="190.32" departLane="best" from="130655256#13" to="-139284249#24"/>
    <trip id="veh231" type="veh_passenger" depart="191.15" departLane="best" from="130655275#5" to="473597502#1"/>
    <trip id="veh233" type="veh_passenger" depart="192.80" departLane="best" from="473354933" to="32868990"/>
    <trip id="veh234" type="veh_passenger" depart="193.63" departLane="best" departSpeed="max" from="-41213358#6" to="32868408#2"/>
    <trip id="veh235" type="veh_passenger" depart="194.46" departLane="best" from="473352944#3" to="511051550#1"/>
    <trip id="veh236" type="veh_passenger" depart="195.29" departLane="best" from="130655275#1" to="32868403#1"/>
    <trip id="veh237" type="veh_passenger" depart="196.11" departLane="best" from="139283275#9" to="139283752#0"/>
    <trip id="veh238" type="veh_passenger" depart="196.94" departLane="best" from="-139284249#21" to="-139284661#0"/>
    <trip id="veh240" type="veh_passenger" depart="198.60" departLane="best" from="-41205375#5" to="155378633#1"/>
    <trip id="veh241" type="veh_passenger" depart="199.42" departLane="best" from="130655145" to="-139283557#2"/>
    <trip id="veh242" type="veh_passenger" depart="200.25" departLane="best" from="135883062#5" to="-139283277#1"/>
    <trip id="veh243" type="veh_passenger" depart="201.08" departLane="best" from="139283943#2" to="-130655188#3"/>
    <trip id="veh244" type="veh_passenger" depart="201.91" departLane="best" departSpeed="max" from="130655038#0" to="139283468"/>
    <trip id="veh245" type="veh_passenger" depart="202.73" departLane="best" from="-130655129#2" to="139284526#1"/>
    <trip id="veh246" type="veh_passenger" depart="203.56" departLane="best" from="-139283274#0" to="135883163"/>
    <trip id="veh247" type="veh_passenger" depart="204.39" departLane="best" departSpeed="max" from="-130655325#2" to="130655171#5"/>
    <trip id="veh251" type="veh_passenger" depart="207.70" departLane="best" departSpeed="max" from="-130655053" to="139283285#1"/>
    <trip id="veh254" type="veh_passenger" depart="210.18" departLane="best" from="139284463" to="32868408#6"/>
    <trip id="veh255" type="veh_passenger" depart="211.01" departLane="best" departSpeed="max" from="510991256" to="-139284199#1"/>
    <trip id="veh256" type="veh_passenger" depart="211.84" departLane="best" from="-130655057#3" to="-139283486#11"/>
    <trip id="veh257" type="veh_passenger" depart="212.66" departLane="best" from="-139283187#5" to="149505239"/>
    <trip id="veh258" type="veh_passenger" depart="213.49" departLane="best" from="139283375#6" to="-139284649#0"/>
    <trip id="veh259" type="veh_passenger" depart="214.32" departLane="best" from="25713784#0-AddedOnRampEdge" to="32868992"/>
    <trip id="veh260" type="veh_passenger" depart="215.15" departLane="best" from="-139283486#21" to="139283815#0"/>
    <trip id="veh261" type="veh_passenger" depart="215.97" departLane="best" from="32868410#1" to="-139283187#5"/>
    <trip id="veh262" type="veh_passenger" depart="216.80" departLane="best" from="41220803#1" to="588408673#20"/>
    <trip id="veh263" type="veh_passenger" depart="217.63" departLane="best" from="-136180582" to="-130655171#6"/>
    <trip id="veh265" type="veh_passenger" depart="219.28" departLane="best" from="511052009#2" to="130655304#1"/>
    <trip id="veh269" type="veh_passenger" depart="222.59" departLane="best" from="473352944#17" to="139283675#1"/>
    <trip id="veh270" type="veh_passenger" depart="223.42" departLane="best" from="-139283150#1" to="88170971#1"/>
    <trip id="veh271" type="veh_passenger" depart="224.25" departLane="best" from="135882789#0" to="130655080#0"/>
    <trip id="veh276" type="veh_passenger" depart="228.39" departLane="best" from="289432760#4" to="135883013#1"/>
    <trip id="veh277" type="veh_passenger" depart="229.21" departLane="best" from="32846334#2" to="588408673#21"/>
    <trip id="veh279" type="veh_passenger" depart="230.87" departLane="best" from="139283252#1" to="13788641"/>
    <trip id="veh282" type="veh_passenger" depart="233.35" departLane="best" from="462660518" to="-135883202"/>
    <trip id="veh284" type="veh_passenger" depart="235.01" departLane="best" from="135883062#14" to="139283901#10"/>
    <trip id="veh285" type="veh_passenger" depart="235.83" departLane="best" from="100222983#0" to="-130655208#2"/>
    <trip id="veh286" type="veh_passenger" depart="236.66" departLane="best" from="473352944#18" to="-139283901#2"/>
    <trip id="veh287" type="veh_passenger" depart="237.49" departLane="best" from="-139284189" to="41205233#7"/>
    <trip id="veh288" type="veh_passenger" depart="238.32" departLane="best" from="-41208868#7" to="473578191#2-AddedOffRampEdge"/>
    <trip id="veh290" type="veh_passenger" depart="239.97" departLane="best" from="-130655002" to="511048017"/>
    <trip id="veh292" type="veh_passenger" depart="241.63" departLane="best" from="135886995#2" to="32868411#5"/>
    <trip id="veh294" type="veh_passenger" depart="243.28" departLane="best" from="135891624#8" to="41205230#0"/>
    <trip id="veh295" type="veh_passenger" depart="244.11" departLane="best" from="-135883172" to="-139284680#0"/>
    <trip id="veh297" type="veh_passenger" depart="245.76" departLane="best" from="139283486#14" to="135892004#2"/>
    <trip id="veh298" type="veh_passenger" depart="246.59" departLane="best" from="139283171#6" to="135882947#10"/>
    <trip id="veh299" type="veh_passenger" depart="247.42" departLane="best" from="32868408#2" to="-453140309#0"/>
    <trip id="veh300" type="veh_passenger" depart="248.25" departLane="best" from="272190635" to="-32868986#2"/>
    <trip id="veh301" type="veh_passenger" depart="249.07" departLane="best" from="-149505239" to="-139283266#0"/>
    <trip id="veh302" type="veh_passenger" depart="249.90" departLane="best" from="-139283666#1" to="-139283257#1"/>
    <trip id="veh303" type="veh_passenger" depart="250.73" departLane="best" from="139283247#1" to="32868423#0"/>
    <trip id="veh304" type="veh_passenger" depart="251.56" departLane="best" from="-139283616#2" to="-139284644#0"/>
    <trip id="veh305" type="veh_passenger" depart="252.38" departLane="best" from="135883171" to="327907938#10"/>
    <trip id="veh306" type="veh_passenger" depart="253.21" departLane="best" from="588408673#4" to="139283249#6"/>
    <trip id="veh308" type="veh_passenger" depart="254.87" departLane="best" from="-139283675#3" to="-149505215"/>
    <trip id="veh309" type="veh_passenger" depart="255.69" departLane="best" from="-139283588#0" to="-130655043"/>
    <trip id="veh311" type="veh_passenger" depart="257.35" departLane="best" from="588408673#32" to="139283446#1"/>
    <trip id="veh312" type="veh_passenger" depart="258.18" departLane="best" from="251422238#4" to="-139283275#6"/>
    <trip id="veh313" type="veh_passenger" depart="259.00" departLane="best" from="473553097#8" to="13799121#4"/>
    <trip id="veh314" type="veh_passenger" depart="259.83" departLane="best" from="473578178#0" to="139283486#32"/>
    <trip id="veh315" type="veh_passenger" depart="260.66" departLane="best" from="-139283612#0" to="-135882825"/>
    <trip id="veh316" type="veh_passenger" depart="261.49" departLane="best" from="475258508#0" to="136144530"/>
    <trip id="veh319" type="veh_passenger" depart="263.97" departLane="best" from="-135882773" to="-139283457#3"/>
    <trip id="veh320" type="veh_passenger" depart="264.79" departLane="best" from="139283375#1" to="-41205274#0"/>
    <trip id="veh321" type="veh_passenger" depart="265.62" departLane="best" from="88170971#26" to="-139283252#0"/>
    <trip id="veh324" type="veh_passenger" depart="268.10" departLane="best" from="139283130#7" to="135883064#8"/>
    <trip id="veh326" type="veh_passenger" depart="269.76" departLane="best" from="88170971#17" to="-41205287#2"/>
    <trip id="veh327" type="veh_passenger" depart="270.59" departLane="best" from="139283922#1" to="139283865"/>
    <trip id="veh328" type="veh_passenger" depart="271.41" departLane="best" from="32868401" to="510998167#1"/>
    <trip id="veh329" type="veh_passenger" depart="272.24" departLane="best" from="-139284058#15" to="-139284285#0"/>
    <trip id="veh330" type="veh_passenger" depart="273.07" departLane="best" departSpeed="max" from="139284679#0" to="-139283486#32"/>
    <trip id="veh331" type="veh_passenger" depart="273.90" departLane="best" from="-139283531#13" to="-135883032#3"/>
    <trip id="veh332" type="veh_passenger" depart="274.72" departLane="best" from="-100222985#3" to="135883064#8"/>
    <trip id="veh333" type="veh_passenger" depart="275.55" departLane="best" from="139283531#10" to="-41204960#4"/>
    <trip id="veh334" type="veh_passenger" depart="276.38" departLane="best" departSpeed="max" from="-139284603" to="25713784#4-AddedOffRampEdge"/>
    <trip id="veh335" type="veh_passenger" depart="277.21" departLane="best" from="272195149" to="135883104"/>
    <trip id="veh337" type="veh_passenger" depart="278.86" departLane="best" departSpeed="max" from="41205220" to="139284157#0"/>
    <trip id="veh338" type="veh_passenger" depart="279.69" departLane="best" departSpeed="max" from="139284680#0" to="475251796#0"/>
    <trip id="veh340" type="veh_passenger" depart="281.34" departLane="best" from="139284268" to="473731346-AddedOffRampEdge"/>