<routes>
        <vType id="default" accel="0.8" decel="4.5" sigma="0.5" length="5" minGap="2.5" maxSpeed="16.67" guiShape="passenger"/>
        <route id="sw-ne" edges="gneE65 gneE19 gneE16 gneE57" />
        <route id="ne-sw" edges="gneE59 gneE13 gneE12 gneE52" />
    <vehicle id="test_0" type="default" route="sw-ne" depart="0" />
    <vehicle id="test_1" type="default" route="ne-sw" depart="0" />
    <vehicle id="test_2" type="default" route="sw-ne" depart="8" />
    <vehicle id="test_3" type="default" route="ne-sw" depart="8" />
    <vehicle id="test_4" type="default" route="sw-ne" depart="16" />
    <vehicle id="test_5" type="default" route="ne-sw" depart="16" />
    <vehicle id="test_6" type="default" route="sw-ne" depart="24" />
    <vehicle id="test_7" type="default" route="ne-sw" depart="24" />
    <vehicle id="test_8" type="default" route="sw-ne" depart="32" />
    <vehicle id="test_9" type="default" route="ne-sw" depart="32" />
    <vehicle id="test_10" type="default" route="sw-ne" depart="40" />
    <vehicle id="test_11" type="default" route="ne-sw" depart="40" />
    <vehicle id="test_12" type="default" route="sw-ne" depart="48" />
    <vehicle id="test_13" type="default" route="ne-sw" depart="48" />
    <vehicle id="test_14" type="default" route="sw-ne" depart="56" />
    <vehicle id="test_15" type="default" route="ne-sw" depart="56" />
    <vehicle id="test_16" type="default" route="sw-ne" depart="64" />
    <vehicle id="test_17" type="default" route="ne-sw" depart="64" />
    <vehicle id="test_18" type="default" route="sw-ne" depart="72" />
    <vehicle id="test_19" type="default" route="ne-sw" depart="72" />
    <vehicle id="test_20" type="default" route="sw-ne" depart="80" />
    <vehicle id="test_21" type="default" route="ne-sw" depart="80" />
    <vehicle id="test_22" type="default" route="sw-ne" depart="88" />
    <vehicle id="test_23" type="default" route="ne-sw" depart="88" />
    <vehicle id="test_24" type="default" route="sw-ne" depart="96" />
    <vehicle id="test_25" type="default" route="ne-sw" depart="96" />
    <vehicle id="test_26" type="default" route="sw-ne" depart="104" />
    <vehicle id="test_27" type="default" route="ne-sw" depart="104" />
    <vehicle id="test_28" type="default" route="sw-ne" depart="112" />
    <vehicle id="test_29" type="default" route="ne-sw" depart="112" />
    <vehicle id="test_30" type="default" route="sw-ne" depart="120" />
    <vehicle id="test_31" type="default" route="ne-sw" depart="120" />
    <vehicle id="test_32" type="default" route="sw-ne" depart="128" />
    <vehicle id="test_33" type="default" route="ne-sw" depart="128" />
    <vehicle id="test_34" type="default" route="sw-ne" depart="136" />
    <vehicle id="test_35" type="default" route="ne-sw" depart="136" />
    <vehicle id="test_36" type="default" route="sw-ne" depart="144" />
    <vehicle id="test_37" type="default" route="ne-sw" depart="144" />
    <vehicle id="test_38" type="default" route="sw-ne" depart="152" />
    <vehicle id="test_39" type="default" route="ne-sw" depart="152" />
    <vehicle id="test_40" type="default" route="sw-ne" depart="160" />
    <vehicle id="test_41" type="default" route="ne-sw" depart="160" />
    <vehicle id="test_42" type="default" route="sw-ne" depart="168" />
    <vehicle id="test_43" type="default" route="ne-sw" depart="168" />
    <vehicle id="test_44" type="default" route="sw-ne" depart="176" />
    <vehicle id="test_45" type="default" route="ne-sw" depart="176" />
    <vehicle id="test_46" type="default" route="sw-ne" depart="184" />
    <vehicle id="test_47" type="default" route="ne-sw" depart="184" />
    <vehicle id="test_48" type="default" route="sw-ne" depart="192" />
    <vehicle id="test_49" type="default" route="ne-sw" depart="192" />
    <vehicle id="test_50" type="default" route="sw-ne" depart="200" />
    <vehicle id="test_51" type="default" route="ne-sw" depart="200" />
    <vehicle id="test_52" type="default" route="sw-ne" depart="208" />
    <vehicle id="test_53" type="default" route="ne-sw" depart="208" />
    <vehicle id="test_54" type="default" route="sw-ne" depart="216" />
    <vehicle id="test_55" type="default" route="ne-sw" depart="216" />
    <vehicle id="test_56" type="default" route="sw-ne" depart="224" />
    <vehicle id="test_57" type="default" route="ne-sw" depart="224" />
    <vehicle id="test_58" type="default" route="sw-ne" depart="232" />
    <vehicle id="test_59" type="default" route="ne-sw" depart="232" />
    <vehicle id="test_60" type="default" route="sw-ne" depart="240" />
    <vehicle id="test_61" type="default" route="ne-sw" depart="240" />
    <vehicle id="test_62" type="default" route="sw-ne" depart="248" />
    <vehicle id="test_63" type="default" route="ne-sw" depart="248" />
    <vehicle id="test_64" type="default" route="sw-ne" depart="256" />
    <vehicle id="test_65" type="default" route="ne-sw" depart="256" />
    <vehicle id="test_66" type="default" route="sw-ne" depart="264" />
    <vehicle id="test_67" type="default" route="ne-sw" depart="264" />
    <vehicle id="test_68" type="default" route="sw-ne" depart="272" />
    <vehicle id="test_69" type="default" route="ne-sw" depart="272" />
    <vehicle id="test_70" type="default" route="sw-ne" depart="280" />
    <vehicle id="test_71" type="default" route="ne-sw" depart="280" />
    <vehicle id="test_72" type="default" route="sw-ne" depart="288" />
    <vehicle id="test_73" type="default" route="ne-sw" depart="288" />
    <vehicle id="test_74" type="default" route="sw-ne" depart="296" />
    <vehicle id="test_75" type="default" route="ne-sw" depart="296" />
    <vehicle id="test_76" type="default" route="sw-ne" depart="304" />
    <vehicle id="test_77" type="default" route="ne-sw" depart="304" />
    <vehicle id="test_78" type="default" route="sw-ne" depart="312" />
    <vehicle id="test_79" type="default" route="ne-sw" depart="312" />
    <vehicle id="test_80" type="default" route="sw-ne" depart="320" />
    <vehicle id="test_81" type="default" route="ne-sw" depart="320" />
    <vehicle id="test_82" type="default" route="sw-ne" depart="328" />
    <vehicle id="test_83" type="default" route="ne-sw" depart="328" />
    <vehicle id="test_84" type="default" route="sw-ne" depart="336" />
    <vehicle id="test_85" type="default" route="ne-sw" depart="336" />
    <vehicle id="test_86" type="default" route="sw-ne" depart="344" />
    <vehicle id="test_87" type="default" route="ne-sw" depart="344" />
    <vehicle id="test_88" type="default" route="sw-ne" depart="352" />
    <vehicle id="test_89" type="default" route="ne-sw" depart="352" />
    <vehicle id="test_90" type="default" route="sw-ne" depart="360" />
    <vehicle id="test_91" type="default" route="ne-sw" depart="360" />
    <vehicle id="test_92" type="default" route="sw-ne" depart="368" />
    <vehicle id="test_93" type="default" route="ne-sw" depart="368" />
    <vehicle id="test_94" type="default" route="sw-ne" depart="376" />
    <vehicle id="test_95" type="default" route="ne-sw" depart="376" />
    <vehicle id="test_96" type="default" route="sw-ne" depart="384" />
    <vehicle id="test_97" type="default" route="ne-sw" depart="384" />
    <vehicle id="test_98" type="default" route="sw-ne" depart="392" />
    <vehicle id="test_99" type="default" route="ne-sw" depart="392" />
    <vehicle id="test_100" type="default" route="sw-ne" depart="400" />
    <vehicle id="test_101" type="default" route="ne-sw" depart="400" />
    <vehicle id="test_102" type="default" route="sw-ne" depart="408" />
    <vehicle id="test_103" type="default" route="ne-sw" depart="408" />
    <vehicle id="test_104" type="default" route="sw-ne" depart="416" />
    <vehicle id="test_105" type="default" route="ne-sw" depart="416" />
    <vehicle id="test_106" type="default" route="sw-ne" depart="424" />
    <vehicle id="test_107" type="default" route="ne-sw" depart="424" />
    <vehicle id="test_108" type="default" route="sw-ne" depart="432" />
    <vehicle id="test_109" type="default" route="ne-sw" depart="432" />
    <vehicle id="test_110" type="default" route="sw-ne" depart="440" />
    <vehicle id="test_111" type="default" route="ne-sw" depart="440" />
    <vehicle id="test_112" type="default" route="sw-ne" depart="448" />
    <vehicle id="test_113" type="default" route="ne-sw" depart="448" />
    <vehicle id="test_114" type="default" route="sw-ne" depart="456" />
    <vehicle id="test_115" type="default" route="ne-sw" depart="456" />
    <vehicle id="test_116" type="default" route="sw-ne" depart="464" />
    <vehicle id="test_117" type="default" route="ne-sw" depart="464" />
    <vehicle id="test_118" type="default" route="sw-ne" depart="472" />
    <vehicle id="test_119" type="default" route="ne-sw" depart="472" />
    <vehicle id="test_120" type="default" route="sw-ne" depart="480" />
    <vehicle id="test_121" type="default" route="ne-sw" depart="480" />
    <vehicle id="test_122" type="default" route="sw-ne" depart="488" />
    <vehicle id="test_123" type="default" route="ne-sw" depart="488" />
    <vehicle id="test_124" type="default" route="sw-ne" depart="496" />
    <vehicle id="test_125" type="default" route="ne-sw" depart="496" />
    <vehicle id="test_126" type="default" route="sw-ne" depart="504" />
    <vehicle id="test_127" type="default" route="ne-sw" depart="504" />
    <vehicle id="test_128" type="default" route="sw-ne" depart="512" />
    <vehicle id="test_129" type="default" route="ne-sw" depart="512" />
    <vehicle id="test_130" type="default" route="sw-ne" depart="520" />
    <vehicle id="test_131" type="default" route="ne-sw" depart="520" />
    <vehicle id="test_132" type="default" route="sw-ne" depart="528" />
    <vehicle id="test_133" type="default" route="ne-sw" depart="528" />
    <vehicle id="test_134" type="default" route="sw-ne" depart="536" />
    <vehicle id="test_135" type="default" route="ne-sw" depart="536" />
    <vehicle id="test_136" type="default" route="sw-ne" depart="544" />
    <vehicle id="test_137" type="default" route="ne-sw" depart="544" />
    <vehicle id="test_138" type="default" route="sw-ne" depart="552" />
    <vehicle id="test_139" type="default" route="ne-sw" depart="552" />
    <vehicle id="test_140" type="default" route="sw-ne" depart="560" />
    <vehicle id="test_141" type="default" route="ne-sw" depart="560" />
    <vehicle id="test_142" type="default" route="sw-ne" depart="568" />
    <vehicle id="test_143" type="default" route="ne-sw" depart="568" />
    <vehicle id="test_144" type="default" route="sw-ne" depart="576" />
    <vehicle id="test_145" type="default" route="ne-sw" depart="576" />
    <vehicle id="test_146" type="default" route="sw-ne" depart="584" />
    <vehicle id="test_147" type="default" route="ne-sw" depart="584" />
    <vehicle id="test_148" type="default" route="sw-ne" depart="592" />
    <vehicle id="test_149" type="default" route="ne-sw" depart="592" />
    <vehicle id="test_150" type="default" route="sw-ne" depart="600" />
    <vehicle id="test_151" type="default" route="ne-sw" depart="600" />
    <vehicle id="test_152" type="default" route="sw-ne" depart="608" />
    <vehicle id="test_153" type="default" route="ne-sw" depart="608" />
    <vehicle id="test_154" type="default" route="sw-ne" depart="616" />
    <vehicle id="test_155" type="default" route="ne-sw" depart="616" />
    <vehicle id="test_156" type="default" route="sw-ne" depart="624" />
    <vehicle id="test_157" type="default" route="ne-sw" depart="624" />
    <vehicle id="test_158" type="default" route="sw-ne" depart="632" />
    <vehicle id="test_159" type="default" route="ne-sw" depart="632" />
    <vehicle id="test_160" type="default" route="sw-ne" depart="640" />
    <vehicle id="test_161" type="default" route="ne-sw" depart="640" />
    <vehicle id="test_162" type="default" route="sw-ne" depart="648" />
    <vehicle id="test_163" type="default" route="ne-sw" depart="648" />
    <vehicle id="test_164" type="default" route="sw-ne" depart="656" />
    <vehicle id="test_165" type="default" route="ne-sw" depart="656" />
    <vehicle id="test_166" type="default" route="sw-ne" depart="664" />
    <vehicle id="test_167" type="default" route="ne-sw" depart="664" />
    <vehicle id="test_168" type="default" route="sw-ne" depart="672" />
    <vehicle id="test_169" type="default" route="ne-sw" depart="672" />
    <vehicle id="test_170" type="default" route="sw-ne" depart="680" />
    <vehicle id="test_171" type="default" route="ne-sw" depart="680" />
    <vehicle id="test_172" type="default" route="sw-ne" depart="688" />
    <vehicle id="test_173" type="default" route="ne-sw" depart="688" />
    <vehicle id="test_174" type="default" route="sw-ne" depart="696" />
    <vehicle id="test_175" type="default" route="ne-sw" depart="696" />
    <vehicle id="test_176" type="default" route="sw-ne" depart="704" />
    <vehicle id="test_177" type="default" route="ne-sw" depart="704" />
    <vehicle id="test_178" type="default" route="sw-ne" depart="712" />
    <vehicle id="test_179" type="default" route="ne-sw" depart="712" />
    <vehicle id="test_180" type="default" route="sw-ne" depart="720" />
    <vehicle id="test_181" type="default" route="ne-sw" depart="720" />
    <vehicle id="test_182" type="default" route="sw-ne" depart="728" />
    <vehicle id="test_183" type="default" route="ne-sw" depart="728" />
    <vehicle id="test_184" type="default" route="sw-ne" depart="736" />
    <vehicle id="test_185" type="default" route="ne-sw" depart="736" />
    <vehicle id="test_186" type="default" route="sw-ne" depart="744" />
    <vehicle id="test_187" type="default" route="ne-sw" depart="744" />
    <vehicle id="test_188" type="default" route="sw-ne" depart="752" />
    <vehicle id="test_189" type="default" route="ne-sw" depart="752" />
    <vehicle id="test_190" type="default" route="sw-ne" depart="760" />
    <vehicle id="test_191" type="default" route="ne-sw" depart="760" />
    <vehicle id="test_192" type="default" route="sw-ne" depart="768" />
    <vehicle id="test_193" type="default" route="ne-sw" depart="768" />
    <vehicle id="test_194" type="default" route="sw-ne" depart="776" />
    <vehicle id="test_195" type="default" route="ne-sw" depart="776" />
    <vehicle id="test_196" type="default" route="sw-ne" depart="784" />
    <vehicle id="test_197" type="default" route="ne-sw" depart="784" />
    <vehicle id="test_198" type="default" route="sw-ne" depart="792" />
    <vehicle id="test_199" type="default" route="ne-sw" depart="792" />
    <vehicle id="test_200" type="default" route="sw-ne" depart="800" />
    <vehicle id="test_201" type="default" route="ne-sw" depart="800" />
    <vehicle id="test_202" type="default" route="sw-ne" depart="808" />
    <vehicle id="test_203" type="default" route="ne-sw" depart="808" />
    <vehicle id="test_204" type="default" route="sw-ne" depart="816" />
    <vehicle id="test_205" type="default" route="ne-sw" depart="816" />
    <vehicle id="test_206" type="default" route="sw-ne" depart="824" />
    <vehicle id="test_207" type="default" route="ne-sw" depart="824" />
    <vehicle id="test_208" type="default" route="sw-ne" depart="832" />
    <vehicle id="test_209" type="default" route="ne-sw" depart="832" />
    <vehicle id="test_210" type="default" route="sw-ne" depart="840" />
    <vehicle id="test_211" type="default" route="ne-sw" depart="840" />
    <vehicle id="test_212" type="default" route="sw-ne" depart="848" />
    <vehicle id="test_213" type="default" route="ne-sw" depart="848" />
    <vehicle id="test_214" type="default" route="sw-ne" depart="856" />
    <vehicle id="test_215" type="default" route="ne-sw" depart="856" />
    <vehicle id="test_216" type="default" route="sw-ne" depart="864" />
    <vehicle id="test_217" type="default" route="ne-sw" depart="864" />
    <vehicle id="test_218" type="default" route="sw-ne" depart="872" />
    <vehicle id="test_219" type="default" route="ne-sw" depart="872" />
    <vehicle id="test_220" type="default" route="sw-ne" depart="880" />
    <vehicle id="test_221" type="default" route="ne-sw" depart="880" />
    <vehicle id="test_222" type="default" route="sw-ne" depart="888" />
    <vehicle id="test_223" type="default" route="ne-sw" depart="888" />
    <vehicle id="test_224" type="default" route="sw-ne" depart="896" />
    <vehicle id="test_225" type="default" route="ne-sw" depart="896" />
    <vehicle id="test_226" type="default" route="sw-ne" depart="904" />
    <vehicle id="test_227" type="default" route="ne-sw" depart="904" />
    <vehicle id="test_228" type="default" route="sw-ne" depart="912" />
    <vehicle id="test_229" type="default" route="ne-sw" depart="912" />
    <vehicle id="test_230" type="default" route="sw-ne" depart="920" />
    <vehicle id="test_231" type="default" route="ne-sw" depart="920" />
    <vehicle id="test_232" type="default" route="sw-ne" depart="928" />
    <vehicle id="test_233" type="default" route="ne-sw" depart="928" />
    <vehicle id="test_234" type="default" route="sw-ne" depart="936" />
    <vehicle id="test_235" type="default" route="ne-sw" depart="936" />
    <vehicle id="test_236" type="default" route="sw-ne" depart="944" />
    <vehicle id="test_237" type="default" route="ne-sw" depart="944" />
    <vehicle id="test_238" type="default" route="sw-ne" depart="952" />
    <vehicle id="test_239" type="default" route="ne-sw" depart="952" />
    <vehicle id="test_240" type="default" route="sw-ne" depart="960" />
    <vehicle id="test_241" type="default" route="ne-sw" depart="960" />
    <vehicle id="test_242" type="default" route="sw-ne" depart="968" />
    <vehicle id="test_243" type="default" route="ne-sw" depart="968" />
    <vehicle id="test_244" type="default" route="sw-ne" depart="976" />
    <vehicle id="test_245" type="default" route="ne-sw" depart="976" />
    <vehicle id="test_246" type="default" route="sw-ne" depart="984" />
    <vehicle id="test_247" type="default" route="ne-sw" depart="984" />
    <vehicle id="test_248" type="default" route="sw-ne" depart="992" />
    <vehicle id="test_249" type="default" route="ne-sw" depart="992" />
    <vehicle id="test_250" type="default" route="sw-ne" depart="1000" />
    <vehicle id="test_251" type="default" route="ne-sw" depart="1000" />
    <vehicle id="test_252" type="default" route="sw-ne" depart="1008" />
    <vehicle id="test_253" type="default" route="ne-sw" depart="1008" />
    <vehicle id="test_254" type="default" route="sw-ne" depart="1016" />
    <vehicle id="test_255" type="default" route="ne-sw" depart="1016" />
    <vehicle id="test_256" type="default" route="sw-ne" depart="1024" />
    <vehicle id="test_257" type="default" route="ne-sw" depart="1024" />
    <vehicle id="test_258" type="default" route="sw-ne" depart="1032" />
    <vehicle id="test_259" type="default" route="ne-sw" depart="1032" />
    <vehicle id="test_260" type="default" route="sw-ne" depart="1040" />
    <vehicle id="test_261" type="default" route="ne-sw" depart="1040" />
    <vehicle id="test_262" type="default" route="sw-ne" depart="1048" />
    <vehicle id="test_263" type="default" route="ne-sw" depart="1048" />
    <vehicle id="test_264" type="default" route="sw-ne" depart="1056" />
    <vehicle id="test_265" type="default" route="ne-sw" depart="1056" />
    <vehicle id="test_266" type="default" route="sw-ne" depart="1064" />
    <vehicle id="test_267" type="default" route="ne-sw" depart="1064" />
    <vehicle id="test_268" type="default" route="sw-ne" depart="1072" />
    <vehicle id="test_269" type="default" route="ne-sw" depart="1072" />
    <vehicle id="test_270" type="default" route="sw-ne" depart="1080" />
    <vehicle id="test_271" type="default" route="ne-sw" depart="1080" />
    <vehicle id="test_272" type="default" route="sw-ne" depart="1088" />
    <vehicle id="test_273" type="default" route="ne-sw" depart="1088" />
    <vehicle id="test_274" type="default" route="sw-ne" depart="1096" />
    <vehicle id="test_275" type="default" route="ne-sw" depart="1096" />
    <vehicle id="test_276" type="default" route="sw-ne" depart="1104" />
    <vehicle id="test_277" type="default" route="ne-sw" depart="1104" />
    <vehicle id="test_278" type="default" route="sw-ne" depart="1112" />
    <vehicle id="test_279" type="default" route="ne-sw" depart="1112" />
    <vehicle id="test_280" type="default" route="sw-ne" depart="1120" />
    <vehicle id="test_281" type="default" route="ne-sw" depart="1120" />
    <vehicle id="test_282" type="default" route="sw-ne" depart="1128" />
    <vehicle id="test_283" type="default" route="ne-sw" depart="1128" />
    <vehicle id="test_284" type="default" route="sw-ne" depart="1136" />
    <vehicle id="test_285" type="default" route="ne-sw" depart="1136" />
    <vehicle id="test_286" type="default" route="sw-ne" depart="1144" />
    <vehicle id="test_287" type="default" route="ne-sw" depart="1144" />
    <vehicle id="test_288" type="default" route="sw-ne" depart="1152" />
    <vehicle id="test_289" type="default" route="ne-sw" depart="1152" />
    <vehicle id="test_290" type="default" route="sw-ne" depart="1160" />
    <vehicle id="test_291" type="default" route="ne-sw" depart="1160" />
    <vehicle id="test_292" type="default" route="sw-ne" depart="1168" />
    <vehicle id="test_293" type="default" route="ne-sw" depart="1168" />
    <vehicle id="test_294" type="default" route="sw-ne" depart="1176" />
    <vehicle id="test_295" type="default" route="ne-sw" depart="1176" />
    <vehicle id="test_296" type="default" route="sw-ne" depart="1184" />
    <vehicle id="test_297" type="default" route="ne-sw" depart="1184" />
    <vehicle id="test_298" type="default" route="sw-ne" depart="1192" />
    <vehicle id="test_299" type="default" route="ne-sw" depart="1192" />
    <vehicle id="test_300" type="default" route="sw-ne" depart="1200" />
    <vehicle id="test_301" type="default" route="ne-sw" depart="1200" />
    <vehicle id="test_302" type="default" route="sw-ne" depart="1208" />
    <vehicle id="test_303" type="default" route="ne-sw" depart="1208" />
    <vehicle id="test_304" type="default" route="sw-ne" depart="1216" />
    <vehicle id="test_305" type="default" route="ne-sw" depart="1216" />
    <vehicle id="test_306" type="default" route="sw-ne" depart="1224" />
    <vehicle id="test_307" type="default" route="ne-sw" depart="1224" />
    <vehicle id="test_308" type="default" route="sw-ne" depart="1232" />
    <vehicle id="test_309" type="default" route="ne-sw" depart="1232" />
    <vehicle id="test_310" type="default" route="sw-ne" depart="1240" />
    <vehicle id="test_311" type="default" route="ne-sw" depart="1240" />
    <vehicle id="test_312" type="default" route="sw-ne" depart="1248" />
    <vehicle id="test_313" type="default" route="ne-sw" depart="1248" />
    <vehicle id="test_314" type="default" route="sw-ne" depart="1256" />
    <vehicle id="test_315" type="default" route="ne-sw" depart="1256" />
    <vehicle id="test_316" type="default" route="sw-ne" depart="1264" />
    <vehicle id="test_317" type="default" route="ne-sw" depart="1264" />
    <vehicle id="test_318" type="default" route="sw-ne" depart="1272" />
    <vehicle id="test_319" type="default" route="ne-sw" depart="1272" />
    <vehicle id="test_320" type="default" route="sw-ne" depart="1280" />
    <vehicle id="test_321" type="default" route="ne-sw" depart="1280" />
    <vehicle id="test_322" type="default" route="sw-ne" depart="1288" />
    <vehicle id="test_323" type="default" route="ne-sw" depart="1288" />
    <vehicle id="test_324" type="default" route="sw-ne" depart="1296" />
    <vehicle id="test_325" type="default" route="ne-sw" depart="1296" />
    <vehicle id="test_326" type="default" route="sw-ne" depart="1304" />
    <vehicle id="test_327" type="default" route="ne-sw" depart="1304" />
    <vehicle id="test_328" type="default" route="sw-ne" depart="1312" />
    <vehicle id="test_329" type="default" route="ne-sw" depart="1312" />
    <vehicle id="test_330" type="default" route="sw-ne" depart="1320" />
    <vehicle id="test_331" type="default" route="ne-sw" depart="1320" />
    <vehicle id="test_332" type="default" route="sw-ne" depart="1328" />
    <vehicle id="test_333" type="default" route="ne-sw" depart="1328" />
    <vehicle id="test_334" type="default" route="sw-ne" depart="1336" />
    <vehicle id="test_335" type="default" route="ne-sw" depart="1336" />
    <vehicle id="test_336" type="default" route="sw-ne" depart="1344" />
    <vehicle id="test_337" type="default" route="ne-sw" depart="1344" />
    <vehicle id="test_338" type="default" route="sw-ne" depart="1352" />
    <vehicle id="test_339" type="default" route="ne-sw" depart="1352" />
    <vehicle id="test_340" type="default" route="sw-ne" depart="1360" />
    <vehicle id="test_341" type="default" route="ne-sw" depart="1360" />
    <vehicle id="test_342" type="default" route="sw-ne" depart="1368" />
    <vehicle id="test_343" type="default" route="ne-sw" depart="1368" />
    <vehicle id="test_344" type="default" route="sw-ne" depart="1376" />
    <vehicle id="test_345" type="default" route="ne-sw" depart="1376" />
    <vehicle id="test_346" type="default" route="sw-ne" depart="1384" />
    <vehicle id="test_347" type="default" route="ne-sw" depart="1384" />
    <vehicle id="test_348" type="default" route="sw-ne" depart="1392" />
    <vehicle id="test_349" type="default" route="ne-sw" depart="1392" />
    <vehicle id="test_350" type="default" route="sw-ne" depart="1400" />
    <vehicle id="test_351" type="default" route="ne-sw" depart="1400" />
    <vehicle id="test_352" type="default" route="sw-ne" depart="1408" />
    <vehicle id="test_353" type="default" route="ne-sw" depart="1408" />
    <vehicle id="test_354" type="default" route="sw-ne" depart="1416" />
    <vehicle id="test_355" type="default" route="ne-sw" depart="1416" />
    <vehicle id="test_356" type="default" route="sw-ne" depart="1424" />
    <vehicle id="test_357" type="default" route="ne-sw" depart="1424" />
    <vehicle id="test_358" type="default" route="sw-ne" depart="1432" />
    <vehicle id="test_359" type="default" route="ne-sw" depart="1432" />
    <vehicle id="test_360" type="default" route="sw-ne" depart="1440" />
    <vehicle id="test_361" type="default" route="ne-sw" depart="1440" />
    <vehicle id="test_362" type="default" route="sw-ne" depart="1448" />
    <vehicle id="test_363" type="default" route="ne-sw" depart="1448" />
    <vehicle id="test_364" type="default" route="sw-ne" depart="1456" />
    <vehicle id="test_365" type="default" route="ne-sw" depart="1456" />
    <vehicle id="test_366" type="default" route="sw-ne" depart="1464" />
    <vehicle id="test_367" type="default" route="ne-sw" depart="1464" />
    <vehicle id="test_368" type="default" route="sw-ne" depart="1472" />
    <vehicle id="test_369" type="default" route="ne-sw" depart="1472" />
    <vehicle id="test_370" type="default" route="sw-ne" depart="1480" />
    <vehicle id="test_371" type="default" route="ne-sw" depart="1480" />
    <vehicle id="test_372" type="default" route="sw-ne" depart="1488" />
    <vehicle id="test_373" type="default" route="ne-sw" depart="1488" />
    <vehicle id="test_374" type="default" route="sw-ne" depart="1496" />
    <vehicle id="test_375" type="default" route="ne-sw" depart="1496" />
    <vehicle id="test_376" type="default" route="sw-ne" depart="1504" />
    <vehicle id="test_377" type="default" route="ne-sw" depart="1504" />
    <vehicle id="test_378" type="default" route="sw-ne" depart="1512" />
    <vehicle id="test_379" type="default" route="ne-sw" depart="1512" />
    <vehicle id="test_380" type="default" route="sw-ne" depart="1520" />
    <vehicle id="test_381" type="default" route="ne-sw" depart="1520" />
    <vehicle id="test_382" type="default" route="sw-ne" depart="1528" />
    <vehicle id="test_383" type="default" route="ne-sw" depart="1528" />
    <vehicle id="test_384" type="default" route="sw-ne" depart="1536" />
    <vehicle id="test_385" type="default" route="ne-sw" depart="1536" />
    <vehicle id="test_386" type="default" route="sw-ne" depart="1544" />
    <vehicle id="test_387" type="default" route="ne-sw" depart="1544" />
    <vehicle id="test_388" type="default" route="sw-ne" depart="1552" />
    <vehicle id="test_389" type="default" route="ne-sw" depart="1552" />
    <vehicle id="test_390" type="default" route="sw-ne" depart="1560" />
    <vehicle id="test_391" type="default" route="ne-sw" depart="1560" />
    <vehicle id="test_392" type="default" route="sw-ne" depart="1568" />
    <vehicle id="test_393" type="default" route="ne-sw" depart="1568" />
    <vehicle id="test_394" type="default" route="sw-ne" depart="1576" />
    <vehicle id="test_395" type="default" route="ne-sw" depart="1576" />
    <vehicle id="test_396" type="default" route="sw-ne" depart="1584" />
    <vehicle id="test_397" type="default" route="ne-sw" depart="1584" />
    <vehicle id="test_398" type="default" route="sw-ne" depart="1592" />
    <vehicle id="test_399" type="default" route="ne-sw" depart="1592" />
    <vehicle id="test_400" type="default" route="sw-ne" depart="1600" />
    <vehicle id="test_401" type="default" route="ne-sw" depart="1600" />
    <vehicle id="test_402" type="default" route="sw-ne" depart="1608" />
    <vehicle id="test_403" type="default" route="ne-sw" depart="1608" />
    <vehicle id="test_404" type="default" route="sw-ne" depart="1616" />
    <vehicle id="test_405" type="default" route="ne-sw" depart="1616" />
    <vehicle id="test_406" type="default" route="sw-ne" depart="1624" />
    <vehicle id="test_407" type="default" route="ne-sw" depart="1624" />
    <vehicle id="test_408" type="default" route="sw-ne" depart="1632" />
    <vehicle id="test_409" type="default" route="ne-sw" depart="1632" />
    <vehicle id="test_410" type="default" route="sw-ne" depart="1640" />
    <vehicle id="test_411" type="default" route="ne-sw" depart="1640" />