<?xml version="1.0" encoding="UTF-8"?>

<!-- generated on 01/30/21 18:23:56 by Eclipse SUMO netedit Version 1.7.0
<configuration xmlns:xsi="http://www.w3.org/2001/XMLSchema-instance" xsi:noNamespaceSchemaLocation="http://sumo.dlr.de/xsd/netconvertConfiguration.xsd">

    <input>
        <sumo-net-file value="C:\Users\cau\Documents\GitHub\G15_Capstone\TrainingGym\Scenarios\VitalTri\VitalTriPM\VitalTriTrimPM.net.xml"/>
    </input>

    <output>
        <output-file value="C:\Users\cau\Documents\GitHub\G15_Capstone\TrainingGym\Scenarios\VitalTri\VitalTriPM\VitalTriTrimPM.net.xml"/>
        <output.street-names value="true"/>
    </output>

    <processing>
        <geometry.min-radius.fix.railways value="false"/>
        <geometry.max-grade.fix value="false"/>
        <offset.disable-normalization value="true"/>
        <lefthand value="false"/>
    </processing>

    <junctions>
        <no-turnarounds value="true"/>
        <junctions.corner-detail value="5"/>
        <junctions.limit-turn-speed value="5.5"/>
        <rectangular-lane-cut value="false"/>
    </junctions>

    <pedestrian>
        <walkingareas value="false"/>
    </pedestrian>

    <netedit>
        <route-files value="C:\Users\cau\Documents\GitHub\G15_Capstone\TrainingGym\Scenarios\VitalTri\VitalTriPM\VitalTriPM_Optimized.rou.xml"/>
    </netedit>

    <report>
        <aggregate-warnings value="5"/>
    </report>

</configuration>
-->

<routes xmlns:xsi="http://www.w3.org/2001/XMLSchema-instance" xsi:noNamespaceSchemaLocation="http://sumo.dlr.de/xsd/routes_file.xsd">
    <vehicle id="0" depart="0.00">
        <route edges="edge_105_8#9 edge_8_9#0 edge_8_9#1 edge_8_9#2 edge_8_9#3 289430973#0" color="yellow"/>
    </vehicle>
    <vehicle id="1" depart="0.24">
        <route edges="edge_9_8#4 edge_8_106#0 edge_8_106#1 edge_8_106#2 edge_8_106#3 edge_8_106#4 edge_8_106#5 edge_8_106#6 edge_8_106#7 edge_8_106#8 -139284189 139283375#1" color="yellow"/>
    </vehicle>
    <vehicle id="2" depart="0.48">
        <route edges="edge_104_6#1 edge_6_5#0 edge_6_5#1 edge_6_5#2 edge_6_5#3 edge_6_5#4 edge_6_5#5 edge_6_5#6 edge_6_5#8 edge_6_5#9 edge_5_2#0 edge_5_2#1 edge_5_2#2 -130655020#7" color="yellow"/>
    </vehicle>
    <vehicle id="3" depart="0.71">
        <route edges="edge_2_3#5 edge_3_107#0 edge_3_107#1 edge_3_107#2" color="yellow"/>
    </vehicle>
    <vehicle id="4" depart="0.95">
        <route edges="edge_1_2#12 edge_2_5#0 edge_2_5#1 edge_2_5#2 edge_2_5#3 edge_5_6#0 edge_5_6#1 edge_5_6#2 edge_5_6#3 edge_5_6#4 edge_6_104#0 edge_6_104#1" color="yellow"/>
    </vehicle>
    <vehicle id="5" depart="1.19">
        <route edges="edge_2_3#5 edge_3_107#0 edge_3_107#1 edge_3_107#2" color="yellow"/>
    </vehicle>
    <vehicle id="6" depart="1.43">
        <route edges="edge_1_4#3 edge_4_3#0 41205403#1 41205403#1.120 41205403#2 edge_2_1#5 edge_2_1#6 edge_2_1#7 edge_2_1#8 41205287#1" color="yellow"/>
    </vehicle>
    <vehicle id="7" depart="1.66">
        <route edges="edge_1_2#12 edge_2_5#0 edge_2_5#1 edge_2_5#2 edge_2_5#3 edge_5_6#0 edge_5_6#1 edge_5_6#2 edge_5_6#3 edge_5_6#4 edge_6_104#0 edge_6_104#1" color="yellow"/>
    </vehicle>
    <vehicle id="8" depart="1.90">
        <route edges="edge_3_4#4 edge_4_1#0 edge_4_1#1 edge_4_1#2 ramp_1_NE edge_1_101#1 edge_1_101#2 edge_1_101#3 -32868406#9 -32868406#6" color="yellow"/>
    </vehicle>
    <vehicle id="9" depart="2.14">
        <route edges="edge_3_9#5 edge_9_8#0 edge_9_8#1 edge_9_8#2 edge_9_8#3 ramp_8_NW edge_8_7#1 edge_8_7#2 edge_8_7#3 edge_7_6#0 edge_7_6#1 edge_7_6#2 289432764" color="yellow"/>
    </vehicle>
    <vehicle id="10" depart="2.38">
        <route edges="edge_2_3#5 edge_3_107#0 edge_3_107#1 edge_3_107#2" color="yellow"/>
    </vehicle>
    <vehicle id="11" depart="2.61">
        <route edges="edge_4_1#3 edge_1_102#0 edge_1_102#1 edge_1_102#2 -41208868#3" color="yellow"/>
    </vehicle>
    <vehicle id="12" depart="2.85">
        <route edges="edge_102_1#6 edge_1_4#0 edge_1_4#1 edge_1_4#2 edge_1_4#3 edge_4_3#0 41205403#1 -gneE84" color="yellow"/>
    </vehicle>
    <vehicle id="13" depart="3.09">
        <route edges="edge_104_6#1 edge_6_5#0 edge_6_5#1 edge_6_5#2 edge_6_5#3 edge_6_5#4 edge_6_5#5 edge_6_5#6 edge_6_5#8 edge_6_5#9 edge_5_2#0 edge_5_2#1 edge_5_2#2 -130655020#7" color="yellow"/>
    </vehicle>
    <vehicle id="14" depart="3.33">
        <route edges="edge_9_3#5 edge_3_4#0 edge_3_4#1 edge_3_4#2 41205403#1 41205403#1.120 41205403#2 edge_1_2#6 41205233#1 41205233#2" color="yellow"/>
    </vehicle>
    <vehicle id="15" depart="3.56">
        <route edges="edge_102_1#6 edge_1_4#0 edge_1_4#1 edge_1_4#2 edge_1_4#3 edge_4_3#0 41205403#1 41205403#1.120 41205403#2 edge_1_2#6 41205233#1 41205233#2" color="yellow"/>
    </vehicle>
    <vehicle id="16" depart="3.80">
        <route edges="edge_3_2#5 edge_2_103#0 edge_2_103#1 edge_2_103#2 edge_2_103#3 edge_2_103#4" color="yellow"/>
    </vehicle>
    <vehicle id="17" depart="4.04">
        <route edges="edge_5_2#5 edge_2_1#0 edge_2_1#1 edge_2_1#2 edge_2_1#3 edge_2_1#4 edge_2_1#5 edge_2_1#6 32868409#1 32868409#2.1 -gneE83" color="yellow"/>
    </vehicle>
    <vehicle id="18" depart="4.28">
        <route edges="edge_101_1#5 edge_1_2#0 edge_1_2#1 edge_1_2#2 edge_1_2#3 32868409#1 32868409#2.1 -gneE83" color="yellow"/>
    </vehicle>
    <vehicle id="19" depart="4.52">
        <route edges="edge_103_2#4 ramp_2_SW edge_2_5#1 edge_2_5#2 edge_2_5#3 edge_5_6#0 edge_5_6#1 edge_5_6#2 edge_5_6#3 edge_5_6#4 edge_6_104#0 edge_6_104#1" color="yellow"/>
    </vehicle>
    <vehicle id="20" depart="4.75">
        <route edges="edge_2_3#5 edge_3_107#0 edge_3_107#1 edge_3_107#2" color="yellow"/>
    </vehicle>
    <vehicle id="21" depart="4.99">
        <route edges="edge_9_8#4 edge_8_105#0 edge_8_105#1 edge_8_105#2 edge_8_105#3 edge_8_105#4 edge_8_105#5 edge_8_105#6 edge_8_105#7 edge_8_105#8 edge_8_105#9 -139283285#5" color="yellow"/>
    </vehicle>
    <vehicle id="22" depart="5.23">
        <route edges="edge_3_2#5 edge_2_103#0 edge_2_103#1 edge_2_103#2 edge_2_103#3 edge_2_103#4" color="yellow"/>
    </vehicle>
    <vehicle id="23" depart="5.47">
        <route edges="edge_1_2#12 edge_2_5#0 edge_2_5#1 edge_2_5#2 edge_2_5#3 edge_5_6#0 edge_5_6#1 edge_5_6#2 edge_5_6#3 edge_5_6#4 edge_6_104#0 edge_6_104#1" color="yellow"/>
    </vehicle>
    <vehicle id="24" depart="5.70">
        <route edges="edge_102_1#6 edge_1_4#0 edge_1_4#1 edge_1_4#2 edge_1_4#3 edge_4_3#0 41205403#1 -gneE84" color="yellow"/>
    </vehicle>
    <vehicle id="25" depart="5.94">
        <route edges="edge_7_8#6 edge_8_106#0 139400810" color="yellow"/>
    </vehicle>
    <vehicle id="26" depart="6.18">
        <route edges="edge_103_2#5 edge_2_1#0 edge_2_1#1 edge_2_1#2 edge_2_1#3 edge_2_1#4 -41205403#2 -41205403#1 gneE85" color="yellow"/>
    </vehicle>
    <vehicle id="27" depart="6.42">
        <route edges="edge_4_1#3 edge_1_2#0 edge_1_2#1 41205287#1" color="yellow"/>
    </vehicle>
    <vehicle id="28" depart="6.65">
        <route edges="edge_1_2#12 edge_2_5#0 edge_2_5#1 edge_2_5#2 edge_2_5#3 edge_5_6#0 edge_5_6#1 edge_5_6#2 edge_5_6#3 edge_5_6#4 edge_6_104#0 edge_6_104#1" color="yellow"/>
    </vehicle>
    <vehicle id="29" depart="6.89">
        <route edges="edge_105_8#9 edge_8_9#0 edge_8_9#1 edge_8_9#2 edge_8_9#3 289430973#0" color="yellow"/>
    </vehicle>
    <vehicle id="30" depart="7.13">
        <route edges="edge_9_8#4 edge_8_105#0 edge_8_105#1 edge_8_105#2 edge_8_105#3 -139283275#0" color="yellow"/>
    </vehicle>
    <vehicle id="31" depart="7.37">
        <route edges="edge_9_3#5 edge_3_4#0 edge_3_4#1 edge_3_4#2 41205403#1 41205403#1.120 41205403#2 edge_2_1#5 edge_2_1#6 edge_2_1#7 edge_2_1#8 edge_2_1#9 ramp_1_SE edge_1_4#1 edge_1_4#2 776672503#0" color="yellow"/>
    </vehicle>
    <vehicle id="32" depart="7.60">
        <route edges="edge_104_6#1 edge_6_5#0 edge_6_5#1 edge_6_5#2 edge_6_5#3 edge_6_5#4 -130655214#5" color="yellow"/>
    </vehicle>
    <vehicle id="33" depart="7.84">
        <route edges="edge_1_2#12 edge_2_5#0 edge_2_5#1 edge_2_5#2 edge_2_5#3 edge_5_6#0 edge_5_6#1 edge_5_6#2 edge_5_6#3 edge_5_6#4 edge_6_104#0 edge_6_104#1" color="yellow"/>
    </vehicle>
    <vehicle id="34" depart="8.08">
        <route edges="edge_103_2#4 ramp_2_SW edge_2_5#1 edge_2_5#2 edge_2_5#3 edge_5_6#0 edge_5_6#1 edge_5_6#2 edge_5_6#3 edge_5_6#4 edge_6_104#0 edge_6_104#1" color="yellow"/>
    </vehicle>
    <vehicle id="35" depart="8.32">
        <route edges="edge_3_2#5 edge_2_103#0 edge_2_103#1 edge_2_103#2 edge_2_103#3 edge_2_103#4" color="yellow"/>
    </vehicle>
    <vehicle id="36" depart="8.56">
        <route edges="edge_105_8#9 edge_8_9#0 edge_8_9#1 edge_8_9#2 edge_8_9#3 289430973#0" color="yellow"/>
    </vehicle>
    <vehicle id="37" depart="8.79">
        <route edges="edge_101_1#5 edge_1_2#0 edge_1_2#1 edge_1_2#2 edge_1_2#3 edge_1_2#4 edge_1_2#5 edge_1_2#6 edge_1_2#7 edge_1_2#8 edge_1_2#9 edge_1_2#10 edge_1_2#11 ramp_2_NW edge_2_103#1 edge_2_103#2 edge_2_103#3 edge_2_103#4" color="yellow"/>
    </vehicle>
    <vehicle id="38" depart="9.03">
        <route edges="edge_4_1#3 edge_1_2#0 edge_1_2#1 edge_1_2#2 edge_1_2#3 edge_1_2#4 edge_1_2#5 -41205403#2 -41205403#1 gneE85" color="yellow"/>
    </vehicle>
    <vehicle id="39" depart="9.27">
        <route edges="edge_101_1#5 edge_1_2#0 edge_1_2#1 edge_1_2#2 edge_1_2#3 edge_1_2#4 edge_1_2#5 -41205403#2 -41205403#1 -41205403#1.121 edge_3_4#3 edge_3_4#4 edge_4_1#0 edge_4_1#1 edge_4_1#2 ramp_1_NE edge_1_101#1 edge_1_101#2 edge_1_101#3 gneE79" color="yellow"/>
    </vehicle>
    <vehicle id="40" depart="9.51">
        <route edges="edge_103_2#4 ramp_2_SW edge_2_5#1 edge_2_5#2 edge_2_5#3 edge_110_5#0" color="yellow"/>
    </vehicle>
    <vehicle id="41" depart="9.74">
        <route edges="edge_5_2#5 edge_2_103#0 edge_2_103#1 edge_2_103#2 edge_2_103#3 edge_2_103#4" color="yellow"/>
    </vehicle>
    <vehicle id="42" depart="9.98">
        <route edges="edge_2_3#5 edge_3_107#0 edge_3_107#1 edge_3_107#2" color="yellow"/>
    </vehicle>
    <vehicle id="43" depart="10.22">
        <route edges="edge_102_1#6 edge_1_4#0 edge_1_4#1 edge_1_4#2 edge_1_4#3 edge_4_3#0 41205403#1 41205403#1.120 41205403#2 edge_1_2#6 41205233#1 41205233#2" color="yellow"/>
    </vehicle>
    <vehicle id="44" depart="10.46">
        <route edges="edge_4_3#2 edge_3_107#0 edge_3_107#1 edge_3_107#2" color="yellow"/>
    </vehicle>
    <vehicle id="45" depart="10.69">
        <route edges="edge_103_2#4 ramp_2_SW edge_2_5#1 edge_2_5#2 edge_2_5#3 edge_5_6#0 edge_5_6#1 edge_5_6#2 edge_5_6#3 edge_5_6#4 edge_6_104#0 edge_6_104#1" color="yellow"/>
    </vehicle>
    <vehicle id="46" depart="10.93">
        <route edges="edge_3_2#5 edge_2_103#0 edge_2_103#1 edge_2_103#2 edge_2_103#3 edge_2_103#4" color="yellow"/>
    </vehicle>
    <vehicle id="47" depart="11.17">
        <route edges="edge_5_2#5 edge_2_103#0 edge_2_103#1 edge_2_103#2 edge_2_103#3 edge_2_103#4" color="yellow"/>
    </vehicle>
    <vehicle id="48" depart="11.41">
        <route edges="edge_2_3#5 edge_3_107#0 edge_3_107#1 edge_3_107#2" color="yellow"/>
    </vehicle>
    <vehicle id="49" depart="11.65">
        <route edges="edge_103_2#5 edge_2_1#0 edge_2_1#1 edge_2_1#2 edge_2_1#3 edge_2_1#4 -41205403#2 -41205403#1 gneE85" color="yellow"/>
    </vehicle>
    <vehicle id="50" depart="11.88">
        <route edges="edge_105_8#9 edge_8_9#0 edge_8_9#1 edge_8_9#2 edge_8_9#3 289430973#0" color="yellow"/>
    </vehicle>
    <vehicle id="51" depart="12.12">
        <route edges="edge_102_1#6 edge_1_4#0 edge_1_4#1 edge_1_4#2 edge_1_4#3 edge_4_3#0 41205403#1 41205403#1.120 41205403#2 edge_2_1#5 edge_2_1#6 32868409#1 32868409#2.1 -gneE83" color="yellow"/>
    </vehicle>
    <vehicle id="52" depart="12.36">
        <route edges="edge_101_1#5 edge_1_2#0 edge_1_2#1 edge_1_2#2 edge_1_2#3 edge_1_2#4 edge_1_2#5 -41205403#2 -41205403#1 gneE85" color="yellow"/>
    </vehicle>
    <vehicle id="53" depart="12.60">
        <route edges="edge_5_2#5 edge_2_1#0 edge_2_1#1 edge_2_1#2 edge_2_1#3 edge_2_1#4 edge_2_1#5 edge_2_1#6 edge_2_1#7 edge_2_1#8 41205287#1" color="yellow"/>
    </vehicle>
    <vehicle id="54" depart="12.83">
        <route edges="edge_4_3#2 edge_3_9#0 edge_3_9#1 edge_3_9#2 edge_3_9#3 edge_3_9#4 ramp_9_NW" color="yellow"/>
    </vehicle>
    <vehicle id="55" depart="13.07">
        <route edges="edge_2_3#5 edge_3_107#0 edge_3_107#1 edge_3_107#2" color="yellow"/>
    </vehicle>
    <vehicle id="56" depart="13.31">
        <route edges="edge_104_6#1 edge_6_7#0 edge_6_7#1 edge_6_7#2 edge_6_7#3 edge_6_7#4 edge_7_8#0 edge_7_8#1 edge_7_8#2 edge_7_8#3 edge_7_8#4 edge_7_8#5 ramp_8_SW edge_8_105#1 edge_8_105#2 edge_8_105#3 139283275#2" color="yellow"/>
    </vehicle>
    <vehicle id="57" depart="13.55">
        <route edges="edge_104_6#1 edge_6_5#0 edge_6_5#1 edge_6_5#2 edge_6_5#3 edge_6_5#4 -130655214#5" color="yellow"/>
    </vehicle>
    <vehicle id="58" depart="13.78">
        <route edges="edge_105_8#9 edge_8_9#0 edge_8_9#1 edge_8_9#2 edge_8_9#3 289430973#0" color="yellow"/>
    </vehicle>
    <vehicle id="59" depart="14.02">
        <route edges="edge_102_1#6 edge_1_4#0 edge_1_4#1 edge_1_4#2 edge_1_4#3 edge_4_3#0 41205403#1 -gneE84" color="yellow"/>
    </vehicle>
    <vehicle id="60" depart="14.26">
        <route edges="edge_2_3#5 edge_3_107#0 edge_3_107#1 edge_3_107#2" color="yellow"/>
    </vehicle>
    <vehicle id="61" depart="14.50">
        <route edges="edge_2_1#10 edge_1_101#0 edge_1_101#1 edge_1_101#2 edge_1_101#3 edge_1_101#4 edge_1_101#5 gneE81" color="yellow"/>
    </vehicle>
    <vehicle id="62" depart="14.73">
        <route edges="edge_101_1#5 edge_1_2#0 edge_1_2#1 edge_1_2#2 edge_1_2#3 32868409#1 32868409#2.1 -gneE83" color="yellow"/>
    </vehicle>
    <vehicle id="63" depart="14.97">
        <route edges="edge_7_8#6 edge_8_106#0 edge_8_106#1 -139283299#2" color="yellow"/>
    </vehicle>
    <vehicle id="64" depart="15.21">
        <route edges="edge_4_3#2 edge_3_107#0 edge_3_107#1 edge_3_107#2" color="yellow"/>
    </vehicle>
    <vehicle id="65" depart="15.45">
        <route edges="edge_5_2#5 edge_2_103#0 edge_2_103#1 edge_2_103#2 edge_2_103#3 edge_2_103#4" color="yellow"/>
    </vehicle>
    <vehicle id="66" depart="15.69">
        <route edges="edge_103_2#5 edge_2_1#0 edge_2_1#1 edge_2_1#2 edge_2_1#3 41205233#1 41205233#2" color="yellow"/>
    </vehicle>
    <vehicle id="67" depart="15.92">
        <route edges="edge_2_3#5 edge_3_107#0 edge_3_107#1 edge_3_107#2" color="yellow"/>
    </vehicle>
    <vehicle id="68" depart="16.16">
        <route edges="edge_105_8#9 edge_8_9#0 edge_8_9#1 edge_8_9#2 edge_8_9#3 edge_8_9#4 edge_8_9#5 edge_9_3#0 edge_9_3#1 edge_9_3#2 edge_9_3#3 edge_9_3#4 ramp_3_SE edge_3_107#1 edge_3_107#2" color="yellow"/>
    </vehicle>
    <vehicle id="69" depart="16.40">
        <route edges="edge_2_3#5 edge_3_107#0 edge_3_107#1 edge_3_107#2" color="yellow"/>
    </vehicle>
    <vehicle id="70" depart="16.64">
        <route edges="edge_3_2#5 edge_2_103#0 edge_2_103#1 edge_2_103#2 edge_2_103#3 edge_2_103#4" color="yellow"/>
    </vehicle>
    <vehicle id="71" depart="16.87">
        <route edges="edge_103_2#4 ramp_2_SW edge_2_5#1 edge_2_5#2 edge_2_5#3 edge_110_5#0" color="yellow"/>
    </vehicle>
    <vehicle id="72" depart="17.11">
        <route edges="edge_109_6#3 edge_6_5#0 edge_6_5#1 edge_6_5#2 edge_6_5#3 edge_6_5#4 edge_6_5#5 edge_6_5#6 edge_6_5#8 edge_6_5#9 edge_110_5#0" color="yellow"/>
    </vehicle>
    <vehicle id="73" depart="17.35">
        <route edges="edge_5_2#5 edge_2_103#0 edge_2_103#1 edge_2_103#2 edge_2_103#3 edge_2_103#4" color="yellow"/>
    </vehicle>
    <vehicle id="74" depart="17.59">
        <route edges="edge_9_8#4 edge_8_105#0 edge_8_105#1 -139284058#9" color="yellow"/>
    </vehicle>
    <vehicle id="75" depart="17.82">
        <route edges="edge_102_1#6 edge_1_4#0 edge_1_4#1 edge_1_4#2 776672503#0" color="yellow"/>
    </vehicle>
    <vehicle id="76" depart="18.06">
        <route edges="edge_9_3#5 edge_3_4#0 edge_3_4#1 edge_3_4#2 edge_3_4#3 edge_3_4#4 edge_4_1#0 776672503#0" color="yellow"/>
    </vehicle>
    <vehicle id="77" depart="18.30">
        <route edges="edge_107_3#2 ramp_3_NE edge_3_4#1 edge_3_4#2 41205403#1 41205403#1.120 41205403#2 edge_2_1#5 edge_2_1#6 edge_2_1#7 edge_2_1#8 41205287#1" color="yellow"/>
    </vehicle>
    <vehicle id="78" depart="18.54">
        <route edges="edge_102_1#6 edge_1_4#0 edge_1_4#1 edge_1_4#2 edge_1_4#3 edge_4_3#0 41205403#1 -gneE84" color="yellow"/>
    </vehicle>
    <vehicle id="79" depart="18.77">
        <route edges="edge_105_8#9 edge_8_9#0 edge_8_9#1 edge_8_9#2 edge_8_9#3 289430973#0" color="yellow"/>
    </vehicle>
    <vehicle id="80" depart="19.01">
        <route edges="edge_109_6#3 edge_6_7#0 edge_6_7#1 edge_6_7#2 edge_6_7#3 edge_6_7#4 edge_7_8#0 edge_7_8#1 edge_7_8#2 edge_7_8#3 edge_7_8#4 edge_7_8#5 ramp_8_SW edge_8_105#1 edge_8_105#2 edge_8_105#3 139283275#2" color="yellow"/>
    </vehicle>
    <vehicle id="81" depart="19.25">
        <route edges="edge_1_2#12 edge_2_5#0 edge_2_5#1 edge_2_5#2 edge_2_5#3 edge_5_6#0 edge_5_6#1 edge_5_6#2 edge_5_6#3 edge_5_6#4 edge_6_104#0 edge_6_104#1" color="yellow"/>
    </vehicle>
    <vehicle id="82" depart="19.49">
        <route edges="edge_2_3#5 edge_3_107#0 edge_3_107#1 edge_3_107#2" color="yellow"/>
    </vehicle>
    <vehicle id="83" depart="19.73">
        <route edges="edge_3_2#5 edge_2_103#0 edge_2_103#1 edge_2_103#2 edge_2_103#3 edge_2_103#4" color="yellow"/>
    </vehicle>
    <vehicle id="84" depart="19.96">
        <route edges="edge_9_3#5 edge_3_4#0 edge_3_4#1 edge_3_4#2 edge_3_4#3 edge_3_4#4 edge_4_1#0 edge_4_1#1 edge_4_1#2 ramp_1_NE edge_1_101#1 edge_1_101#2 edge_1_101#3 gneE79" color="yellow"/>
    </vehicle>
    <vehicle id="85" depart="20.20">
        <route edges="edge_2_3#5 edge_3_107#0 edge_3_107#1 edge_3_107#2" color="yellow"/>
    </vehicle>
    <vehicle id="86" depart="20.44">
        <route edges="edge_2_1#10 edge_1_101#0 edge_1_101#1 edge_1_101#2 edge_1_101#3 edge_1_101#4 edge_1_101#5 -41212224#5" color="yellow"/>
    </vehicle>
    <vehicle id="87" depart="20.68">
        <route edges="edge_101_1#5 edge_1_4#0 edge_1_4#1 edge_1_4#2 edge_1_4#3 edge_4_3#0 41205403#1 41205403#1.120 41205403#2 edge_2_1#5 edge_2_1#6 41205377" color="yellow"/>
    </vehicle>
    <vehicle id="88" depart="20.91">
        <route edges="edge_2_1#10 edge_1_101#0 edge_1_101#1 edge_1_101#2 edge_1_101#3 edge_1_101#4 edge_1_101#5 gneE81" color="yellow"/>
    </vehicle>
    <vehicle id="89" depart="21.15">
        <route edges="edge_5_2#5 edge_2_103#0 edge_2_103#1 edge_2_103#2 edge_2_103#3 edge_2_103#4" color="yellow"/>
    </vehicle>
    <vehicle id="90" depart="21.39">
        <route edges="edge_3_2#5 edge_2_103#0 edge_2_103#1 edge_2_103#2 edge_2_103#3 edge_2_103#4" color="yellow"/>
    </vehicle>
    <vehicle id="91" depart="21.63">
        <route edges="edge_2_3#5 edge_3_107#0 edge_3_107#1 edge_3_107#2" color="yellow"/>
    </vehicle>
    <vehicle id="92" depart="21.86">
        <route edges="edge_104_6#1 edge_6_5#0 edge_6_5#1 edge_6_5#2 edge_6_5#3 edge_6_5#4 -130655214#5" color="yellow"/>
    </vehicle>
    <vehicle id="93" depart="22.10">
        <route edges="edge_1_4#3 edge_4_108#0 edge_108_4#6 edge_4_3#0 41205403#1 -gneE84" color="yellow"/>
    </vehicle>
    <vehicle id="94" depart="22.34">
        <route edges="edge_4_1#3 edge_1_102#0 edge_1_102#1 edge_1_102#2 edge_1_102#3 -41212224#2" color="yellow"/>
    </vehicle>
    <vehicle id="95" depart="22.58">
        <route edges="edge_7_6#6 edge_6_104#0 edge_6_104#1" color="yellow"/>
    </vehicle>
    <vehicle id="96" depart="22.81">
        <route edges="edge_101_1#5 edge_1_2#0 edge_1_2#1 edge_1_2#2 edge_1_2#3 32868409#1 32868409#2.1 -gneE83" color="yellow"/>
    </vehicle>
    <vehicle id="97" depart="23.05">
        <route edges="edge_9_8#4 edge_8_105#0 edge_8_105#1 edge_8_105#2 edge_8_105#3 edge_8_105#4 edge_8_105#5 -139283287#1" color="yellow"/>
    </vehicle>
    <vehicle id="98" depart="23.29">
        <route edges="edge_3_2#5 edge_2_103#0 edge_2_103#1 edge_2_103#2 edge_2_103#3 edge_2_103#4" color="yellow"/>
    </vehicle>
    <vehicle id="99" depart="23.53">
        <route edges="edge_102_1#6 edge_1_4#0 edge_1_4#1 edge_1_4#2 776672503#0" color="yellow"/>
    </vehicle>
    <vehicle id="100" depart="23.77">
        <route edges="edge_101_1#5 edge_1_2#0 edge_1_2#1 41205287#1" color="yellow"/>
    </vehicle>
    <vehicle id="101" depart="24.00">
        <route edges="edge_2_3#5 edge_3_107#0 edge_3_107#1 edge_3_107#2" color="yellow"/>
    </vehicle>
    <vehicle id="102" depart="24.24">
        <route edges="edge_102_1#4 ramp_1_SW edge_1_2#1 edge_1_2#2 edge_1_2#3 edge_1_2#4 edge_1_2#5 edge_1_2#6 edge_1_2#7 edge_1_2#8 edge_1_2#9 edge_1_2#10 edge_1_2#11 ramp_2_NW edge_2_103#1 edge_2_103#2 edge_2_103#3 edge_2_103#4" color="yellow"/>
    </vehicle>
    <vehicle id="103" depart="24.48">
        <route edges="edge_7_6#6 edge_6_104#0 edge_6_104#1" color="yellow"/>
    </vehicle>
    <vehicle id="104" depart="24.72">
        <route edges="edge_2_1#10 edge_1_101#0 edge_1_101#1 edge_1_101#2 edge_1_101#3 edge_1_101#4 edge_1_101#5 -41212224#5" color="yellow"/>
    </vehicle>
    <vehicle id="105" depart="24.95">
        <route edges="edge_2_1#10 edge_1_101#0 edge_1_101#1 edge_1_101#2 edge_1_101#3 gneE79" color="yellow"/>
    </vehicle>
    <vehicle id="106" depart="25.19">
        <route edges="edge_101_1#5 edge_1_2#0 edge_1_2#1 edge_1_2#2 edge_1_2#3 41205377" color="yellow"/>
    </vehicle>
    <vehicle id="107" depart="25.43">
        <route edges="edge_103_2#4 ramp_2_SW edge_2_5#1 edge_2_5#2 edge_2_5#3 edge_5_6#0 edge_5_6#1 edge_5_6#2 edge_5_6#3 edge_5_6#4 edge_6_104#0 edge_6_104#1" color="yellow"/>
    </vehicle>
    <vehicle id="108" depart="25.67">
        <route edges="edge_104_6#1 edge_6_7#0 edge_6_7#1 edge_6_7#2 edge_6_7#3 edge_6_7#4 edge_7_8#0 edge_7_8#1 edge_7_8#2 edge_7_8#3 edge_7_8#4 edge_7_8#5 ramp_8_SW edge_8_105#1 139283095#1" color="yellow"/>
    </vehicle>
    <vehicle id="109" depart="25.90">
        <route edges="edge_101_1#5 edge_1_2#0 edge_1_2#1 edge_1_2#2 edge_1_2#3 edge_1_2#4 edge_1_2#5 edge_1_2#6 edge_1_2#7 edge_1_2#8 edge_1_2#9 edge_1_2#10 edge_1_2#11 ramp_2_NW edge_2_103#1 edge_2_103#2 edge_2_103#3 edge_2_103#4" color="yellow"/>
    </vehicle>
    <vehicle id="110" depart="26.14">
        <route edges="edge_5_2#5 edge_2_103#0 edge_2_103#1 edge_2_103#2 edge_2_103#3 edge_2_103#4" color="yellow"/>
    </vehicle>
    <vehicle id="111" depart="26.38">
        <route edges="edge_9_8#4 edge_8_106#0 139400810" color="yellow"/>
    </vehicle>
    <vehicle id="112" depart="26.62">
        <route edges="edge_4_3#2 edge_3_9#0 edge_3_9#1 edge_3_9#2 edge_3_9#3 edge_3_9#4 ramp_9_NW" color="yellow"/>
    </vehicle>
    <vehicle id="113" depart="26.86">
        <route edges="edge_104_6#1 edge_6_5#0 edge_6_5#1 edge_6_5#2 edge_6_5#3 edge_6_5#4 edge_6_5#5 edge_6_5#6 edge_6_5#8 edge_6_5#9 edge_110_5#0" color="yellow"/>
    </vehicle>
    <vehicle id="114" depart="27.09">
        <route edges="edge_5_2#5 edge_2_1#0 edge_2_1#1 edge_2_1#2 edge_2_1#3 edge_2_1#4 edge_2_1#5 edge_2_1#6 edge_2_1#7 edge_2_1#8 41205287#1" color="yellow"/>
    </vehicle>
    <vehicle id="115" depart="27.33">
        <route edges="edge_2_3#5 edge_3_107#0 edge_3_107#1 edge_3_107#2" color="yellow"/>
    </vehicle>
    <vehicle id="116" depart="27.57">
        <route edges="edge_103_2#5 edge_2_1#0 edge_2_1#1 edge_2_1#2 edge_2_1#3 41205233#1 41205233#2" color="yellow"/>
    </vehicle>
    <vehicle id="117" depart="27.81">
        <route edges="edge_102_1#6 edge_1_4#0 edge_1_4#1 edge_1_4#2 edge_1_4#3 edge_4_3#0 41205403#1 41205403#1.120 41205403#2 edge_2_1#5 edge_2_1#6 32868409#1 32868409#2.1 -gneE83" color="yellow"/>
    </vehicle>
    <vehicle id="118" depart="28.04">
        <route edges="edge_3_2#5 edge_2_103#0 edge_2_103#1 edge_2_103#2 edge_2_103#3 edge_2_103#4" color="yellow"/>
    </vehicle>
    <vehicle id="119" depart="28.28">
        <route edges="edge_101_1#5 edge_1_2#0 edge_1_2#1 edge_1_2#2 edge_1_2#3 edge_1_2#4 edge_1_2#5 edge_1_2#6 41205233#1 41205233#2" color="yellow"/>
    </vehicle>
    <vehicle id="120" depart="28.52">
        <route edges="edge_3_4#4 edge_4_108#0 edge_108_4#6 edge_4_1#0 776672503#0" color="yellow"/>
    </vehicle>
    <vehicle id="121" depart="28.76">
        <route edges="edge_3_2#5 edge_2_103#0 edge_2_103#1 edge_2_103#2 edge_2_103#3 edge_2_103#4" color="yellow"/>
    </vehicle>
    <vehicle id="122" depart="28.99">
        <route edges="edge_7_6#6 edge_6_104#0 edge_6_104#1" color="yellow"/>
    </vehicle>
    <vehicle id="123" depart="29.23">
        <route edges="edge_9_3#5 edge_3_4#0 edge_3_4#1 edge_3_4#2 edge_3_4#3 edge_3_4#4 edge_4_108#0 edge_4_108#1 155378620#1" color="yellow"/>
    </vehicle>
    <vehicle id="124" depart="29.47">
        <route edges="edge_101_1#5 edge_1_2#0 edge_1_2#1 edge_1_2#2 edge_1_2#3 32868409#1 32868409#2.1 -gneE83" color="yellow"/>
    </vehicle>
    <vehicle id="125" depart="29.71">
        <route edges="edge_1_2#12 edge_2_5#0 edge_2_5#1 edge_2_5#2 edge_2_5#3 edge_5_6#0 edge_5_6#1 edge_5_6#2 edge_5_6#3 edge_5_6#4 edge_6_104#0 edge_6_104#1" color="yellow"/>
    </vehicle>
    <vehicle id="126" depart="29.94">
        <route edges="edge_2_3#5 edge_3_107#0 edge_3_107#1 edge_3_107#2" color="yellow"/>
    </vehicle>
    <vehicle id="127" depart="30.18">
        <route edges="edge_2_3#5 edge_3_107#0 edge_3_107#1 edge_3_107#2" color="yellow"/>
    </vehicle>
    <vehicle id="128" depart="30.42">
        <route edges="edge_103_2#5 edge_2_3#0 edge_2_3#1 edge_2_3#2 edge_2_3#3 edge_2_3#4 ramp_3_SW edge_3_9#1 edge_3_9#2 edge_3_9#3 edge_3_9#4 ramp_9_NW" color="yellow"/>
    </vehicle>
    <vehicle id="129" depart="30.66">
        <route edges="edge_101_1#5 edge_1_2#0 edge_1_2#1 edge_1_2#2 edge_1_2#3 41205377" color="yellow"/>
    </vehicle>
    <vehicle id="130" depart="30.90">
        <route edges="edge_9_8#4 edge_8_105#0 edge_8_105#1 edge_8_105#2 edge_8_105#3 139283275#2" color="yellow"/>
    </vehicle>
    <vehicle id="131" depart="31.13">
        <route edges="edge_9_3#5 edge_3_4#0 edge_3_4#1 edge_3_4#2 41205403#1 41205403#1.120 41205403#2 edge_1_2#6 41205233#1 41205233#2" color="yellow"/>
    </vehicle>
    <vehicle id="132" depart="31.37">
        <route edges="edge_101_1#5 edge_1_2#0 edge_1_2#1 edge_1_2#2 edge_1_2#3 32868409#1 32868409#2.1 -gneE83" color="yellow"/>
    </vehicle>
    <vehicle id="133" depart="31.61">
        <route edges="edge_9_3#5 edge_3_4#0 edge_3_4#1 edge_3_4#2 41205403#1 -gneE84" color="yellow"/>
    </vehicle>
    <vehicle id="134" depart="31.85">
        <route edges="edge_5_2#5 edge_2_1#0 edge_2_1#1 edge_2_1#2 edge_2_1#3 41205233#1 41205233#2" color="yellow"/>
    </vehicle>
    <vehicle id="135" depart="32.08">
        <route edges="edge_1_4#3 edge_4_3#0 41205403#1 41205403#1.120 41205403#2 edge_1_2#6 41205233#1 41205233#2" color="yellow"/>
    </vehicle>
    <vehicle id="136" depart="32.32">
        <route edges="edge_101_1#5 edge_1_2#0 edge_1_2#1 41205287#1" color="yellow"/>
    </vehicle>
    <vehicle id="137" depart="32.56">
        <route edges="edge_1_4#3 edge_4_3#0 41205403#1 41205403#1.120 41205403#2 edge_1_2#6 41205233#1 41205233#2" color="yellow"/>
    </vehicle>
    <vehicle id="138" depart="32.80">
        <route edges="edge_2_3#5 edge_3_4#0 edge_3_4#1 edge_3_4#2 41205403#1 41205403#1.120 41205403#2 edge_2_1#5 edge_2_1#6 edge_2_1#7 edge_2_1#8 41205287#1" color="yellow"/>
    </vehicle>
    <vehicle id="139" depart="33.03">
        <route edges="edge_9_3#5 edge_3_4#0 edge_3_4#1 edge_3_4#2 41205403#1 41205403#1.120 41205403#2 edge_1_2#6 41205233#1 41205233#2" color="yellow"/>
    </vehicle>
    <vehicle id="140" depart="33.27">
        <route edges="edge_105_8#9 edge_8_9#0 edge_8_9#1 edge_8_9#2 edge_8_9#3 289430973#0" color="yellow"/>
    </vehicle>
    <vehicle id="141" depart="33.51">
        <route edges="edge_5_6#4 edge_6_7#0 edge_6_7#1 edge_6_7#2 edge_6_7#3 edge_6_7#4 edge_7_8#0 edge_7_8#1 edge_7_8#2 edge_7_8#3 edge_7_8#4 edge_7_8#5 ramp_8_SW edge_8_105#1 edge_8_105#2 edge_8_105#3 edge_8_105#4 edge_8_105#5 edge_8_105#6 edge_8_105#7 edge_8_105#8 edge_8_105#9 edge_8_105#10" color="yellow"/>
    </vehicle>
    <vehicle id="142" depart="33.75">
        <route edges="edge_2_3#5 edge_3_107#0 edge_3_107#1 edge_3_107#2" color="yellow"/>
    </vehicle>
    <vehicle id="143" depart="33.98">
        <route edges="edge_104_6#1 edge_6_5#0 edge_6_5#1 edge_6_5#2 edge_6_5#3 edge_6_5#4 edge_6_5#5 edge_6_5#6 edge_6_5#8 edge_6_5#9 edge_5_2#0 edge_5_2#1 edge_5_2#2 -130655020#7" color="yellow"/>
    </vehicle>
    <vehicle id="144" depart="34.22">
        <route edges="edge_104_6#1 edge_6_5#0 edge_6_5#1 edge_6_5#2 edge_6_5#3 edge_6_5#4 -130655214#5" color="yellow"/>
    </vehicle>
    <vehicle id="145" depart="34.46">
        <route edges="edge_105_8#9 edge_8_9#0 edge_8_9#1 edge_8_9#2 edge_8_9#3 edge_8_9#4 edge_8_9#5 edge_9_3#0 edge_9_3#1 edge_9_3#2 edge_9_3#3 edge_9_3#4 ramp_3_SE edge_3_107#1 edge_3_107#2" color="yellow"/>
    </vehicle>
    <vehicle id="146" depart="34.70">
        <route edges="edge_3_9#5 edge_9_8#0 edge_9_8#1 edge_9_8#2 edge_9_8#3 ramp_8_NW edge_8_7#1 edge_8_7#2 edge_8_7#3 edge_7_6#0 edge_7_6#1 edge_7_6#2 edge_7_6#3 edge_7_6#4 edge_7_6#5 ramp_6_NE edge_6_5#1 edge_6_5#2 edge_6_5#3 edge_6_5#4 edge_6_5#5 edge_6_5#6 edge_6_5#8 edge_6_5#9 edge_5_2#0 edge_5_2#1 edge_5_2#2 edge_5_2#3 edge_5_2#4 ramp_2_SE edge_2_3#1 edge_2_3#2 edge_2_3#3 edge_2_3#4 ramp_3_SW edge_3_9#1 edge_3_9#2 edge_3_9#3 edge_3_9#4 ramp_9_NW" color="yellow"/>
    </vehicle>
    <vehicle id="147" depart="34.94">
        <route edges="edge_105_8#9 edge_8_9#0 edge_8_9#1 edge_8_9#2 edge_8_9#3 289430973#0" color="yellow"/>
    </vehicle>
    <vehicle id="148" depart="35.17">
        <route edges="edge_9_8#4 edge_8_105#0 edge_8_105#1 edge_8_105#2 edge_8_105#3 edge_8_105#4 edge_8_105#5 edge_8_105#6 edge_8_105#7 edge_8_105#8 edge_8_105#9 edge_8_105#10" color="yellow"/>
    </vehicle>