<?xml version="1.0" encoding="UTF-8"?>

<!-- generated on 01/30/21 17:33:52 by Eclipse SUMO jtrrouter Version 1.7.0
<configuration xmlns:xsi="http://www.w3.org/2001/XMLSchema-instance" xsi:noNamespaceSchemaLocation="http://sumo.dlr.de/xsd/jtrrouterConfiguration.xsd">

    <input>
        <net-file value="TrainingGym/Scenarios/VitalTri/VitalTriPM/VitalTriTrimPM.net.xml"/>
        <route-files value="flows.tmp.xml"/>
        <turn-ratio-files value="TrainingGym/Scenarios/VitalTri/VitalTriPM/VitalTriPM.turn.xml"/>
    </input>

    <output>
        <output-file value="TrainingGym/Scenarios/VitalTri/VitalTriPM/VitalTriPM.rou.xml"/>
    </output>

    <processing>
        <no-internal-links value="true"/>
        <accept-all-destinations value="true"/>
    </processing>

</configuration>
-->

<routes xmlns:xsi="http://www.w3.org/2001/XMLSchema-instance" xsi:noNamespaceSchemaLocation="http://sumo.dlr.de/xsd/routes_file.xsd">
    <vehicle id="32868409#2.0" depart="0.00">
        <route edges="32868409#2 edge_4_3#0 edge_4_3#1 ramp_3_NW edge_3_2#1 edge_3_2#2 edge_3_2#3 edge_3_2#4 ramp_2_NE edge_2_1#1 edge_2_1#2 edge_2_1#3 41205233#1 41205233#2"/>
    </vehicle>
    <vehicle id="edge_101_1#4.0" depart="0.00">
        <route edges="edge_101_1#4 ramp_1_NW edge_1_102#1 32868406#9 edge_101_1#3"/>
    </vehicle>
    <vehicle id="edge_101_1#5.0" depart="0.00">
        <route edges="edge_101_1#5 edge_1_4#0 edge_1_4#1 edge_1_4#2 edge_1_4#3 edge_4_3#0 41205403#1 41205403#1.120 41205403#2 edge_1_2#6 edge_1_2#7 edge_1_2#8 edge_1_2#9 edge_1_2#10 edge_1_2#11 ramp_2_NW edge_2_103#1 edge_2_103#2 edge_2_103#3 edge_2_103#4"/>
    </vehicle>
    <vehicle id="edge_102_1#4.0" depart="0.00">
        <route edges="edge_102_1#4 ramp_1_SW edge_1_2#1 41205287#1"/>
    </vehicle>
    <vehicle id="edge_102_1#6.0" depart="0.00">
        <route edges="edge_102_1#6 edge_1_4#0 edge_1_4#1 edge_1_4#2 edge_1_4#3 edge_4_3#0 41205403#1 41205403#1.120 41205403#2 edge_1_2#6 41205233#1 41205233#2"/>
    </vehicle>
    <vehicle id="edge_103_2#4.0" depart="0.00">
        <route edges="edge_103_2#4 ramp_2_SW edge_2_5#1 edge_2_5#2 edge_2_5#3 edge_110_5#0"/>
    </vehicle>
    <vehicle id="edge_103_2#5.0" depart="0.00">
        <route edges="edge_103_2#5 edge_2_3#0 edge_2_3#1 edge_2_3#2 edge_2_3#3 edge_2_3#4 ramp_3_SW edge_3_9#1 edge_3_9#2 edge_3_9#3 edge_3_9#4 ramp_9_NW"/>
    </vehicle>
    <vehicle id="edge_104_6#1.0" depart="0.00">
        <route edges="edge_104_6#1 edge_6_7#0 edge_6_7#1 edge_6_7#2 edge_6_7#3 edge_6_7#4 edge_7_8#0 edge_7_8#1 edge_7_8#2 edge_7_8#3 edge_7_8#4 edge_7_8#5 ramp_8_SW edge_8_105#1 edge_8_105#2 edge_8_105#3 139283275#2"/>
    </vehicle>
    <vehicle id="edge_105_8#9.0" depart="0.00">
        <route edges="edge_105_8#9 edge_8_9#0 edge_8_9#1 edge_8_9#2 edge_8_9#3 289430973#0"/>
    </vehicle>
    <vehicle id="edge_106_8#14.0" depart="0.00">
        <route edges="edge_106_8#14 edge_8_9#0 edge_8_9#1 edge_8_9#2 edge_8_9#3 edge_8_9#4 edge_8_9#5 edge_9_3#0 edge_9_3#1 edge_9_3#2 edge_9_3#3 edge_9_3#4 ramp_3_SE edge_3_107#1 edge_3_107#2"/>
    </vehicle>
    <vehicle id="edge_107_3#2.0" depart="0.00">
        <route edges="edge_107_3#2 ramp_3_NE edge_3_4#1 edge_3_4#2 41205403#1 -gneE84"/>
    </vehicle>
    <vehicle id="edge_107_3#3.0" depart="0.00">
        <route edges="edge_107_3#3 edge_3_2#0 edge_3_2#1 edge_3_2#2 edge_3_2#3 edge_3_2#4 ramp_2_NE edge_2_1#1 edge_2_1#2 edge_2_1#3 edge_2_1#4 edge_2_1#5 edge_2_1#6 41205377"/>
    </vehicle>
    <vehicle id="edge_108_4#6.0" depart="0.00">
        <route edges="edge_108_4#6 edge_4_1#0 776672503#0"/>
    </vehicle>
    <vehicle id="edge_109_6#2.0" depart="0.00">
        <route edges="edge_109_6#2 ramp_6_SW edge_6_104#1"/>
    </vehicle>
    <vehicle id="edge_109_6#3.0" depart="0.00">
        <route edges="edge_109_6#3 edge_6_7#0 edge_6_7#1 edge_6_7#2 edge_6_7#3 edge_6_7#4 edge_7_8#0 edge_7_8#1 edge_7_8#2 edge_7_8#3 edge_7_8#4 edge_7_8#5 ramp_8_SW edge_8_105#1 edge_8_105#2 edge_8_105#3 -139283275#0"/>
    </vehicle>
    <vehicle id="edge_1_2#11.0" depart="0.00">
        <route edges="edge_1_2#11 ramp_2_NW edge_2_103#1 edge_2_103#2 edge_2_103#3 edge_2_103#4"/>
    </vehicle>
    <vehicle id="edge_1_2#12.0" depart="0.00">
        <route edges="edge_1_2#12 edge_2_5#0 edge_2_5#1 -130655020#7"/>
    </vehicle>
    <vehicle id="edge_1_4#3.0" depart="0.00">
        <route edges="edge_1_4#3 edge_4_3#0 41205403#1 -gneE84"/>
    </vehicle>
    <vehicle id="edge_2_1#10.0" depart="0.00">
        <route edges="edge_2_1#10 edge_1_102#0 edge_1_102#1 edge_1_102#2 41208868#6"/>
    </vehicle>
    <vehicle id="edge_2_1#9.0" depart="0.00">
        <route edges="edge_2_1#9 ramp_1_SE edge_1_4#1 edge_1_4#2 edge_1_4#3 edge_4_3#0 41205403#1 -gneE84"/>
    </vehicle>
    <vehicle id="edge_2_3#4.0" depart="0.00">
        <route edges="edge_2_3#4 ramp_3_SW edge_3_9#1 edge_3_9#2 edge_3_9#3 edge_3_9#4 ramp_9_NW"/>
    </vehicle>
    <vehicle id="edge_2_3#5.0" depart="0.00">
        <route edges="edge_2_3#5 edge_3_107#0 edge_3_107#1 edge_3_107#2"/>
    </vehicle>
    <vehicle id="edge_3_2#4.0" depart="0.00">
        <route edges="edge_3_2#4 ramp_2_NE edge_2_1#1 edge_2_1#2 edge_2_1#3 edge_2_1#4 edge_2_1#5 edge_2_1#6 edge_2_1#7 edge_2_1#8 edge_2_1#9 ramp_1_SE edge_1_4#1 edge_1_4#2 edge_1_4#3 edge_4_108#0 edge_4_108#1 -155378620#0"/>
    </vehicle>
    <vehicle id="edge_3_2#5.0" depart="0.00">
        <route edges="edge_3_2#5 edge_2_103#0 edge_2_103#1 edge_2_103#2 edge_2_103#3 edge_2_103#4"/>
    </vehicle>
    <vehicle id="edge_3_4#4.0" depart="0.00">
        <route edges="edge_3_4#4 edge_4_1#0 776672503#0"/>
    </vehicle>
    <vehicle id="edge_3_9#4.0" depart="0.00">
        <route edges="edge_3_9#4 ramp_9_NW"/>
    </vehicle>
    <vehicle id="edge_3_9#5.0" depart="0.00">
        <route edges="edge_3_9#5 edge_9_8#0 edge_9_8#1 edge_9_8#2 edge_9_8#3 ramp_8_NW edge_8_7#1 edge_8_7#2 edge_8_7#3 edge_7_6#0 edge_7_6#1 edge_7_6#2 edge_7_6#3 edge_7_6#4 edge_7_6#5 ramp_6_NE edge_6_5#1 edge_6_5#2 edge_6_5#3 edge_6_5#4 -130655214#5"/>
    </vehicle>
    <vehicle id="edge_4_1#2.0" depart="0.00">
        <route edges="edge_4_1#2 ramp_1_NE edge_1_101#1 edge_1_101#2 edge_1_101#3 gneE79"/>
    </vehicle>
    <vehicle id="edge_4_1#3.0" depart="0.00">
        <route edges="edge_4_1#3 edge_1_102#0 edge_1_102#1 edge_1_102#2 41208868#6"/>
    </vehicle>
    <vehicle id="edge_4_3#1.0" depart="0.00">
        <route edges="edge_4_3#1 ramp_3_NW edge_3_2#1 edge_3_2#2 edge_3_2#3 edge_3_2#4 ramp_2_NE edge_2_1#1 edge_2_1#2 edge_2_1#3 edge_2_1#4 -41205403#2 -41205403#1 -41205403#1.121 edge_3_4#3 edge_3_4#4 edge_4_1#0 776672503#0"/>
    </vehicle>
    <vehicle id="edge_4_3#2.0" depart="0.00">
        <route edges="edge_4_3#2 edge_3_107#0 edge_3_107#1 edge_3_107#2"/>
    </vehicle>
    <vehicle id="edge_5_2#4.0" depart="0.00">
        <route edges="edge_5_2#4 ramp_2_SE edge_2_3#1 edge_2_3#2 edge_2_3#3 edge_2_3#4 ramp_3_SW edge_3_9#1 edge_3_9#2 edge_3_9#3 edge_3_9#4 ramp_9_NW"/>
    </vehicle>
    <vehicle id="edge_5_2#5.0" depart="0.00">
        <route edges="edge_5_2#5 edge_2_1#0 edge_2_1#1 edge_2_1#2 edge_2_1#3 edge_2_1#4 -41205403#2 -41205403#1 gneE85"/>
    </vehicle>
    <vehicle id="edge_5_6#4.0" depart="0.00">
        <route edges="edge_5_6#4 edge_6_104#0 edge_6_104#1"/>
    </vehicle>
    <vehicle id="edge_6_7#4.0" depart="0.00">
        <route edges="edge_6_7#4 edge_7_8#0 edge_7_8#1 edge_7_8#2 edge_7_8#3 edge_7_8#4 edge_7_8#5 ramp_8_SW edge_8_105#1 edge_8_105#2 edge_8_105#3 edge_8_105#4 edge_8_105#5 edge_8_105#6 edge_8_105#7 edge_8_105#8 edge_8_105#9 -139283285#5"/>
    </vehicle>
    <vehicle id="edge_7_6#5.0" depart="0.00">
        <route edges="edge_7_6#5 ramp_6_NE edge_6_5#1 edge_6_5#2 edge_6_5#3 edge_6_5#4 -130655214#5"/>
    </vehicle>
    <vehicle id="edge_7_6#6.0" depart="0.00">
        <route edges="edge_7_6#6 edge_6_109#0 edge_6_109#1 edge_6_109#2"/>
    </vehicle>
    <vehicle id="edge_7_8#5.0" depart="0.00">
        <route edges="edge_7_8#5 ramp_8_SW edge_8_105#1 edge_8_105#2 edge_8_105#3 -139283275#0"/>
    </vehicle>
    <vehicle id="edge_7_8#6.0" depart="0.00">
        <route edges="edge_7_8#6 edge_8_9#0 edge_8_9#1 edge_8_9#2 edge_8_9#3 edge_8_9#4 edge_8_9#5 edge_9_3#0 edge_9_3#1 edge_9_3#2 edge_9_3#3 edge_9_3#4 ramp_3_SE edge_3_107#1 edge_3_107#2"/>
    </vehicle>
    <vehicle id="edge_8_7#3.0" depart="0.00">
        <route edges="edge_8_7#3 edge_7_6#0 edge_7_6#1 edge_7_6#2 edge_7_6#3 edge_7_6#4 edge_7_6#5 ramp_6_NE edge_6_5#1 edge_6_5#2 edge_6_5#3 edge_6_5#4 -130655214#5"/>
    </vehicle>
    <vehicle id="edge_8_9#5.0" depart="0.00">
        <route edges="edge_8_9#5 edge_9_3#0 edge_9_3#1 edge_9_3#2 edge_9_3#3 edge_9_3#4 ramp_3_SE edge_3_107#1 edge_3_107#2"/>
    </vehicle>
    <vehicle id="edge_9_3#4.0" depart="0.00">
        <route edges="edge_9_3#4 ramp_3_SE edge_3_107#1 edge_3_107#2"/>
    </vehicle>
    <vehicle id="edge_9_3#5.0" depart="0.00">
        <route edges="edge_9_3#5 edge_3_4#0 edge_3_4#1 edge_3_4#2 edge_3_4#3 edge_3_4#4 edge_4_108#0 edge_4_108#1 155378620#1"/>
    </vehicle>
    <vehicle id="edge_9_8#3.0" depart="0.00">
        <route edges="edge_9_8#3 ramp_8_NW edge_8_7#1 edge_8_7#2 edge_8_7#3 edge_7_6#0 edge_7_6#1 edge_7_6#2 edge_7_6#3 edge_7_6#4 edge_7_6#5 ramp_6_NE edge_6_5#1 edge_6_5#2 edge_6_5#3 edge_6_5#4 -130655214#5"/>
    </vehicle>
    <vehicle id="edge_9_8#4.0" depart="0.00">
        <route edges="edge_9_8#4 edge_8_106#0 edge_8_106#1 edge_8_106#2 edge_8_106#3 -139283399 edge_8_106#5 139283174#1"/>
    </vehicle>
    <vehicle id="edge_103_2#5.1" depart="2.15">
        <route edges="edge_103_2#5 edge_2_3#0 edge_2_3#1 edge_2_3#2 edge_2_3#3 edge_2_3#4 ramp_3_SW edge_3_9#1 edge_3_9#2 edge_3_9#3 edge_3_9#4 ramp_9_NW"/>
    </vehicle>
    <vehicle id="edge_101_1#5.1" depart="2.30">
        <route edges="edge_101_1#5 edge_1_2#0 edge_1_2#1 edge_1_2#2 edge_1_2#3 edge_1_2#4 edge_1_2#5 edge_1_2#6 41205233#1 41205233#2"/>
    </vehicle>
    <vehicle id="edge_5_6#4.1" depart="2.51">
        <route edges="edge_5_6#4 edge_6_7#0 edge_6_7#1 edge_6_7#2 edge_6_7#3 edge_6_7#4 edge_7_8#0 edge_7_8#1 edge_7_8#2 edge_7_8#3 edge_7_8#4 edge_7_8#5 ramp_8_SW edge_8_105#1 -139284058#9"/>
    </vehicle>
    <vehicle id="edge_1_2#12.1" depart="2.76">
        <route edges="edge_1_2#12 edge_2_5#0 edge_2_5#1 edge_2_5#2 edge_2_5#3 edge_5_6#0 edge_5_6#1 edge_5_6#2 -130655214#5"/>
    </vehicle>
    <vehicle id="edge_2_3#5.1" depart="2.77">
        <route edges="edge_2_3#5 edge_3_4#0 edge_3_4#1 edge_3_4#2 edge_3_4#3 edge_3_4#4 edge_4_108#0 edge_108_4#6 edge_4_1#0 edge_4_1#1 edge_4_1#2 ramp_1_NE edge_1_101#1 edge_1_101#2 edge_1_101#3 -32868406#9 -32868406#6"/>
    </vehicle>
    <vehicle id="edge_107_3#3.1" depart="2.80">
        <route edges="edge_107_3#3 edge_3_9#0 edge_3_9#1 edge_3_9#2 edge_3_9#3 edge_3_9#4 ramp_9_NW"/>
    </vehicle>
    <vehicle id="edge_3_9#5.1" depart="3.07">
        <route edges="edge_3_9#5 edge_9_8#0 edge_9_8#1 edge_9_8#2 edge_9_8#3 ramp_8_NW edge_8_7#1 edge_8_7#2 edge_8_7#3 edge_7_6#0 edge_7_6#1 edge_7_6#2 289432764"/>
    </vehicle>
    <vehicle id="edge_1_4#3.1" depart="3.09">
        <route edges="edge_1_4#3 edge_4_3#0 edge_4_3#1 ramp_3_NW edge_3_2#1 edge_3_2#2 edge_3_2#3 edge_3_2#4 ramp_2_NE edge_2_1#1 edge_2_1#2 edge_2_1#3 41205233#1 41205233#2"/>
    </vehicle>
    <vehicle id="edge_9_8#4.1" depart="3.33">
        <route edges="edge_9_8#4 edge_8_105#0 edge_8_105#1 edge_8_105#2 edge_8_105#3 edge_8_105#4 edge_8_105#5 edge_8_105#6 edge_8_105#7 edge_8_105#8 edge_8_105#9 -139283285#5"/>
    </vehicle>
    <vehicle id="edge_3_2#5.1" depart="3.54">
        <route edges="edge_3_2#5 edge_2_5#0 edge_2_5#1 -130655020#7"/>
    </vehicle>
    <vehicle id="edge_2_1#10.1" depart="3.66">
        <route edges="edge_2_1#10 edge_1_101#0 edge_1_101#1 edge_1_101#2 edge_1_101#3 edge_1_101#4 -41208868#6"/>
    </vehicle>
    <vehicle id="edge_4_3#2.1" depart="3.84">
        <route edges="edge_4_3#2 edge_3_107#0 edge_3_107#1 edge_3_107#2"/>
    </vehicle>
    <vehicle id="edge_5_2#5.1" depart="4.07">
        <route edges="edge_5_2#5 edge_2_103#0 edge_2_103#1 edge_2_103#2 edge_2_103#3 edge_2_103#4"/>
    </vehicle>
    <vehicle id="edge_104_6#1.1" depart="4.26">
        <route edges="edge_104_6#1 edge_6_5#0 edge_6_5#1 edge_6_5#2 edge_6_5#3 edge_6_5#4 -130655214#5"/>
    </vehicle>
    <vehicle id="edge_103_2#5.2" depart="4.30">
        <route edges="edge_103_2#5 edge_2_3#0 edge_2_3#1 edge_2_3#2 edge_2_3#3 edge_2_3#4 ramp_3_SW edge_3_9#1 edge_3_9#2 edge_3_9#3 edge_3_9#4 ramp_9_NW"/>
    </vehicle>
    <vehicle id="edge_101_1#5.2" depart="4.60">
        <route edges="edge_101_1#5 edge_1_4#0 edge_1_4#1 edge_1_4#2 776672503#0"/>
    </vehicle>
    <vehicle id="edge_3_4#4.1" depart="4.66">
        <route edges="edge_3_4#4 edge_4_1#0 edge_4_1#1 edge_4_1#2 ramp_1_NE edge_1_101#1 edge_1_101#2 edge_1_101#3 edge_1_101#4 gneE80"/>
    </vehicle>
    <vehicle id="edge_9_3#5.1" depart="4.75">
        <route edges="edge_9_3#5 edge_3_4#0 edge_3_4#1 edge_3_4#2 edge_3_4#3 edge_3_4#4 edge_4_1#0 edge_4_1#1 edge_4_1#2 ramp_1_NE edge_1_101#1 edge_1_101#2 edge_1_101#3 gneE79"/>
    </vehicle>
    <vehicle id="edge_102_1#6.1" depart="4.99">
        <route edges="edge_102_1#6 edge_1_4#0 edge_1_4#1 edge_1_4#2 edge_1_4#3 edge_4_3#0 edge_4_3#1 ramp_3_NW edge_3_2#1 edge_3_2#2 edge_3_2#3 edge_3_2#4 ramp_2_NE edge_2_1#1 edge_2_1#2 edge_2_1#3 edge_2_1#4 -41205403#2 -41205403#1 gneE85"/>
    </vehicle>
    <vehicle id="edge_5_6#4.2" depart="5.03">
        <route edges="edge_5_6#4 edge_6_104#0 edge_6_104#1"/>
    </vehicle>
    <vehicle id="edge_8_9#5.1" depart="5.33">
        <route edges="edge_8_9#5 edge_9_3#0 edge_9_3#1 edge_9_3#2 edge_9_3#3 edge_9_3#4 ramp_3_SE edge_3_107#1 edge_3_107#2"/>
    </vehicle>
    <vehicle id="edge_105_8#9.1" depart="5.48">
        <route edges="edge_105_8#9 edge_8_9#0 edge_8_9#1 edge_8_9#2 edge_8_9#3 289430973#0"/>
    </vehicle>
    <vehicle id="edge_1_2#12.2" depart="5.53">
        <route edges="edge_1_2#12 edge_2_5#0 edge_2_5#1 -130655020#7"/>
    </vehicle>
    <vehicle id="edge_2_3#5.2" depart="5.54">
        <route edges="edge_2_3#5 edge_3_107#0 edge_3_107#1 edge_3_107#2"/>
    </vehicle>
    <vehicle id="edge_107_3#3.2" depart="5.61">
        <route edges="edge_107_3#3 edge_3_2#0 edge_3_2#1 edge_3_2#2 edge_3_2#3 edge_3_2#4 ramp_2_NE edge_2_1#1 edge_2_1#2 edge_2_1#3 edge_2_1#4 -41205403#2 -41205403#1 -41205403#1.121 edge_4_3#1 ramp_3_NW"/>
    </vehicle>
    <vehicle id="edge_3_9#5.2" depart="6.15">
        <route edges="edge_3_9#5 edge_9_8#0 edge_9_8#1 edge_9_8#2 edge_9_8#3 ramp_8_NW edge_8_7#1 edge_8_7#2 edge_8_7#3 edge_7_6#0 edge_7_6#1 edge_7_6#2 edge_7_6#3 edge_7_6#4 edge_7_6#5 ramp_6_NE edge_6_5#1 edge_6_5#2 edge_6_5#3 edge_6_5#4 -130655214#5"/>
    </vehicle>
    <vehicle id="edge_1_4#3.2" depart="6.17">
        <route edges="edge_1_4#3 edge_4_3#0 41205403#1 41205403#1.120 41205403#2 edge_2_1#5 edge_2_1#6 edge_2_1#7 edge_2_1#8 edge_2_1#9 ramp_1_SE edge_1_4#1 edge_1_4#2 776672503#0"/>
    </vehicle>
    <vehicle id="edge_103_2#4.1" depart="6.21">
        <route edges="edge_103_2#4 ramp_2_SW edge_2_5#1 -130655020#7"/>
    </vehicle>
    <vehicle id="edge_103_2#5.3" depart="6.45">
        <route edges="edge_103_2#5 edge_2_3#0 edge_2_3#1 edge_2_3#2 edge_2_3#3 edge_2_3#4 ramp_3_SW edge_3_9#1 edge_3_9#2 edge_3_9#3 edge_3_9#4 ramp_9_NW"/>
    </vehicle>
    <vehicle id="edge_6_7#4.1" depart="6.61">
        <route edges="edge_6_7#4 edge_7_8#0 edge_7_8#1 edge_7_8#2 edge_7_8#3 edge_7_8#4 edge_7_8#5 ramp_8_SW edge_8_105#1 139283095#1"/>
    </vehicle>
    <vehicle id="edge_102_1#4.1" depart="6.63">
        <route edges="edge_102_1#4 ramp_1_SW edge_1_2#1 41205287#1"/>
    </vehicle>
    <vehicle id="edge_9_8#4.2" depart="6.66">
        <route edges="edge_9_8#4 edge_8_106#0 edge_8_106#1 edge_8_106#2 -139284054#6"/>
    </vehicle>
    <vehicle id="edge_101_1#5.3" depart="6.90">
        <route edges="edge_101_1#5 edge_1_4#0 edge_1_4#1 edge_1_4#2 edge_1_4#3 edge_4_3#0 edge_4_3#1 ramp_3_NW edge_3_2#1 edge_3_2#2 edge_3_2#3 edge_3_2#4 ramp_2_NE edge_2_1#1 edge_2_1#2 edge_2_1#3 edge_2_1#4 -41205403#2 -41205403#1 gneE85"/>
    </vehicle>
    <vehicle id="edge_3_2#5.2" depart="7.08">
        <route edges="edge_3_2#5 edge_2_5#0 edge_2_5#1 edge_2_5#2 edge_2_5#3 edge_110_5#0"/>
    </vehicle>
    <vehicle id="edge_2_1#10.2" depart="7.32">
        <route edges="edge_2_1#10 edge_1_101#0 edge_1_101#1 edge_1_101#2 edge_1_101#3 edge_1_101#4 edge_1_101#5 gneE81"/>
    </vehicle>
    <vehicle id="edge_5_6#4.3" depart="7.54">
        <route edges="edge_5_6#4 edge_6_104#0 edge_6_104#1"/>
    </vehicle>
    <vehicle id="edge_4_3#2.2" depart="7.67">
        <route edges="edge_4_3#2 edge_3_9#0 edge_3_9#1 edge_3_9#2 edge_3_9#3 edge_3_9#4 ramp_9_NW"/>
    </vehicle>
    <vehicle id="edge_4_1#3.1" depart="7.73">
        <route edges="edge_4_1#3 edge_1_102#0 edge_1_102#1 edge_1_102#2 41208868#6"/>
    </vehicle>
    <vehicle id="edge_8_7#3.1" depart="8.04">
        <route edges="edge_8_7#3 edge_7_6#0 edge_7_6#1 edge_7_6#2 edge_7_6#3 edge_7_6#4 edge_7_6#5 ramp_6_NE edge_6_5#1 edge_6_5#2 edge_6_5#3 edge_6_5#4 -130655214#5"/>
    </vehicle>
    <vehicle id="edge_5_2#5.2" depart="8.13">
        <route edges="edge_5_2#5 edge_2_103#0 edge_2_103#1 edge_2_103#2 edge_2_103#3 edge_2_103#4"/>
    </vehicle>
    <vehicle id="edge_1_2#12.3" depart="8.29">
        <route edges="edge_1_2#12 edge_2_3#0 edge_2_3#1 edge_2_3#2 edge_2_3#3 edge_2_3#4 ramp_3_SW edge_3_9#1 edge_3_9#2 edge_3_9#3 edge_3_9#4 ramp_9_NW"/>
    </vehicle>
    <vehicle id="edge_2_3#5.3" depart="8.31">
        <route edges="edge_2_3#5 edge_3_107#0 edge_3_107#1 edge_3_107#2"/>
    </vehicle>
    <vehicle id="edge_107_3#3.3" depart="8.41">
        <route edges="edge_107_3#3 edge_3_2#0 edge_3_2#1 edge_3_2#2 edge_3_2#3 edge_3_2#4 ramp_2_NE edge_2_1#1 edge_2_1#2 edge_2_1#3 edge_2_1#4 -41205403#2 -41205403#1 -41205403#1.121 edge_4_3#1 ramp_3_NW"/>
    </vehicle>
    <vehicle id="edge_104_6#1.2" depart="8.51">
        <route edges="edge_104_6#1 edge_6_5#0 edge_6_5#1 edge_6_5#2 edge_6_5#3 edge_6_5#4 -130655214#5"/>
    </vehicle>
    <vehicle id="edge_103_2#5.4" depart="8.60">
        <route edges="edge_103_2#5 edge_2_1#0 edge_2_1#1 edge_2_1#2 edge_2_1#3 edge_2_1#4 edge_2_1#5 edge_2_1#6 edge_2_1#7 edge_2_1#8 edge_2_1#9 ramp_1_SE edge_1_4#1 edge_1_4#2 776672503#0"/>
    </vehicle>
    <vehicle id="edge_101_1#5.4" depart="9.20">
        <route edges="edge_101_1#5 edge_1_4#0 edge_1_4#1 edge_1_4#2 776672503#0"/>
    </vehicle>
    <vehicle id="edge_3_9#5.3" depart="9.22">
        <route edges="edge_3_9#5 edge_9_8#0 edge_9_8#1 edge_9_8#2 edge_9_8#3 ramp_8_NW edge_8_7#1 edge_8_7#2 edge_8_7#3 edge_7_6#0 edge_7_6#1 edge_7_6#2 edge_7_6#3 edge_7_6#4 edge_7_6#5 ramp_6_NE edge_6_5#1 edge_6_5#2 edge_6_5#3 edge_6_5#4 edge_6_5#5 edge_6_5#6 edge_6_5#8 edge_6_5#9 edge_5_2#0 edge_5_2#1 edge_5_2#2 edge_5_2#3 edge_5_2#4 ramp_2_SE edge_2_3#1 edge_2_3#2 edge_2_3#3 edge_2_3#4 ramp_3_SW edge_3_9#1 edge_3_9#2 edge_3_9#3 edge_3_9#4 ramp_9_NW"/>
    </vehicle>
    <vehicle id="edge_1_4#3.3" depart="9.26">
        <route edges="edge_1_4#3 edge_4_3#0 edge_4_3#1 ramp_3_NW edge_3_2#1 edge_3_2#2 edge_3_2#3 edge_3_2#4 ramp_2_NE edge_2_1#1 edge_2_1#2 edge_2_1#3 41205233#1 41205233#2"/>
    </vehicle>
    <vehicle id="edge_3_4#4.2" depart="9.33">
        <route edges="edge_3_4#4 edge_4_1#0 776672503#0"/>
    </vehicle>
    <vehicle id="edge_1_2#11.1" depart="9.40">
        <route edges="edge_1_2#11 ramp_2_NW edge_2_103#1 edge_2_103#2 edge_2_103#3 edge_2_103#4"/>
    </vehicle>
    <vehicle id="edge_9_3#5.2" depart="9.50">
        <route edges="edge_9_3#5 edge_3_2#0 edge_3_2#1 edge_3_2#2 edge_3_2#3 edge_3_2#4 ramp_2_NE edge_2_1#1 edge_2_1#2 edge_2_1#3 edge_2_1#4 edge_2_1#5 edge_2_1#6 41205377"/>
    </vehicle>
    <vehicle id="edge_102_1#6.2" depart="9.97">
        <route edges="edge_102_1#6 edge_1_4#0 edge_1_4#1 edge_1_4#2 776672503#0"/>
    </vehicle>
    <vehicle id="edge_9_8#4.3" depart="9.99">
        <route edges="edge_9_8#4 edge_8_106#0 edge_8_106#1 -139283299#2"/>
    </vehicle>
    <vehicle id="edge_5_6#4.4" depart="10.05">
        <route edges="edge_5_6#4 edge_6_104#0 edge_6_104#1"/>
    </vehicle>
    <vehicle id="edge_3_2#5.3" depart="10.62">
        <route edges="edge_3_2#5 edge_2_103#0 edge_2_103#1 edge_2_103#2 edge_2_103#3 edge_2_103#4"/>
    </vehicle>
    <vehicle id="edge_8_9#5.2" depart="10.65">
        <route edges="edge_8_9#5 edge_9_3#0 edge_9_3#1 edge_9_3#2 edge_9_3#3 edge_9_3#4 ramp_3_SE edge_3_107#1 edge_3_107#2"/>
    </vehicle>
    <vehicle id="edge_103_2#5.5" depart="10.75">
        <route edges="edge_103_2#5 edge_2_3#0 edge_2_3#1 edge_2_3#2 edge_2_3#3 edge_2_3#4 ramp_3_SW edge_3_9#1 edge_3_9#2 edge_3_9#3 edge_3_9#4 ramp_9_NW"/>
    </vehicle>
    <vehicle id="edge_106_8#14.1" depart="10.78">
        <route edges="edge_106_8#14 edge_8_7#0 edge_8_7#1 edge_8_7#2 edge_8_7#3 edge_7_6#0 edge_7_6#1 edge_7_6#2 289432764"/>
    </vehicle>
    <vehicle id="edge_105_8#9.2" depart="10.96">
        <route edges="edge_105_8#9 edge_8_7#0 edge_8_7#1 edge_8_7#2 edge_8_7#3 edge_7_6#0 edge_7_6#1 edge_7_6#2 289432764"/>
    </vehicle>
    <vehicle id="edge_2_1#10.3" depart="10.97">
        <route edges="edge_2_1#10 edge_1_102#0 edge_1_102#1 edge_1_102#2 edge_1_102#3 edge_1_102#4"/>
    </vehicle>
    <vehicle id="edge_1_2#12.4" depart="11.06">
        <route edges="edge_1_2#12 edge_2_5#0 edge_2_5#1 -130655020#7"/>
    </vehicle>
    <vehicle id="edge_2_3#5.4" depart="11.08">
        <route edges="edge_2_3#5 edge_3_107#0 edge_3_107#1 edge_3_107#2"/>
    </vehicle>
    <vehicle id="edge_7_8#6.1" depart="11.11">
        <route edges="edge_7_8#6 edge_8_106#0 edge_8_106#1 -139283299#2"/>
    </vehicle>
    <vehicle id="edge_107_3#3.4" depart="11.21">
        <route edges="edge_107_3#3 edge_3_9#0 edge_3_9#1 edge_3_9#2 edge_3_9#3 edge_3_9#4 ramp_9_NW"/>
    </vehicle>
    <vehicle id="edge_7_6#6.1" depart="11.36">
        <route edges="edge_7_6#6 edge_6_104#0 edge_6_104#1"/>
    </vehicle>
    <vehicle id="edge_101_1#5.5" depart="11.50">
        <route edges="edge_101_1#5 edge_1_4#0 edge_1_4#1 edge_1_4#2 edge_1_4#3 edge_4_3#0 41205403#1 -gneE84"/>
    </vehicle>
    <vehicle id="edge_4_3#2.3" depart="11.51">
        <route edges="edge_4_3#2 edge_3_9#0 edge_3_9#1 edge_3_9#2 edge_3_9#3 edge_3_9#4 ramp_9_NW"/>
    </vehicle>
    <vehicle id="edge_4_1#2.1" depart="12.08">
        <route edges="edge_4_1#2 ramp_1_NE edge_1_101#1 edge_1_101#2 edge_1_101#3 gneE79"/>
    </vehicle>
    <vehicle id="edge_5_2#5.3" depart="12.20">
        <route edges="edge_5_2#5 edge_2_103#0 edge_2_103#1 edge_2_103#2 edge_2_103#3 edge_2_103#4"/>
    </vehicle>
    <vehicle id="edge_3_9#5.4" depart="12.30">
        <route edges="edge_3_9#5 edge_9_8#0 edge_9_8#1 edge_9_8#2 edge_9_8#3 ramp_8_NW edge_8_7#1 edge_8_7#2 edge_8_7#3 edge_7_6#0 edge_7_6#1 edge_7_6#2 edge_7_6#3 edge_7_6#4 edge_7_6#5 ramp_6_NE edge_6_5#1 edge_6_5#2 edge_6_5#3 edge_6_5#4 -130655214#5"/>
    </vehicle>
    <vehicle id="edge_1_4#3.4" depart="12.35">
        <route edges="edge_1_4#3 edge_4_108#0 edge_4_108#1 155378620#1"/>
    </vehicle>
    <vehicle id="edge_103_2#4.2" depart="12.41">
        <route edges="edge_103_2#4 ramp_2_SW edge_2_5#1 edge_2_5#2 edge_2_5#3 edge_5_6#0 edge_5_6#1 edge_5_6#2 -130655214#5"/>
    </vehicle>
    <vehicle id="edge_5_6#4.5" depart="12.57">
        <route edges="edge_5_6#4 edge_6_7#0 edge_6_7#1 edge_6_7#2 edge_6_7#3 edge_6_7#4 edge_7_8#0 edge_7_8#1 edge_7_8#2 edge_7_8#3 edge_7_8#4 edge_7_8#5 ramp_8_SW edge_8_105#1 -139284058#9"/>
    </vehicle>
    <vehicle id="edge_104_6#1.3" depart="12.77">
        <route edges="edge_104_6#1 edge_6_5#0 edge_6_5#1 edge_6_5#2 edge_6_5#3 edge_6_5#4 -130655214#5"/>
    </vehicle>
    <vehicle id="edge_3_9#4.1" depart="12.86">
        <route edges="edge_3_9#4 ramp_9_NW"/>
    </vehicle>
    <vehicle id="edge_103_2#5.6" depart="12.89">
        <route edges="edge_103_2#5 edge_2_3#0 edge_2_3#1 edge_2_3#2 edge_2_3#3 edge_2_3#4 ramp_3_SW edge_3_9#1 edge_3_9#2 edge_3_9#3 edge_3_9#4 ramp_9_NW"/>
    </vehicle>
    <vehicle id="edge_6_7#4.2" depart="13.21">
        <route edges="edge_6_7#4 edge_7_8#0 edge_7_8#1 edge_7_8#2 edge_7_8#3 edge_7_8#4 edge_7_8#5 ramp_8_SW edge_8_105#1 edge_8_105#2 edge_8_105#3 edge_8_105#4 edge_8_105#5 -139283287#1"/>
    </vehicle>
    <vehicle id="edge_102_1#4.2" depart="13.26">
        <route edges="edge_102_1#4 ramp_1_SW edge_1_2#1 edge_1_2#2 edge_1_2#3 edge_1_2#4 edge_1_2#5 edge_1_2#6 edge_1_2#7 edge_1_2#8 edge_1_2#9 edge_1_2#10 edge_1_2#11 ramp_2_NW edge_2_103#1 edge_2_103#2 edge_2_103#3 edge_2_103#4"/>
    </vehicle>
    <vehicle id="edge_9_8#4.4" depart="13.32">
        <route edges="edge_9_8#4 edge_8_105#0 edge_8_105#1 edge_8_105#2 edge_8_105#3 -139283275#0"/>
    </vehicle>
    <vehicle id="edge_9_3#4.1" depart="13.33">
        <route edges="edge_9_3#4 ramp_3_SE edge_3_107#1 edge_3_107#2"/>
    </vehicle>
    <vehicle id="edge_101_1#5.6" depart="13.80">
        <route edges="edge_101_1#5 edge_1_2#0 edge_1_2#1 edge_1_2#2 edge_1_2#3 edge_1_2#4 edge_1_2#5 edge_1_2#6 41205233#1 41205233#2"/>
    </vehicle>
    <vehicle id="edge_1_2#12.5" depart="13.82">
        <route edges="edge_1_2#12 edge_2_5#0 edge_2_5#1 -130655020#7"/>
    </vehicle>
    <vehicle id="edge_2_3#5.5" depart="13.86">
        <route edges="edge_2_3#5 edge_3_107#0 edge_3_107#1 edge_3_107#2"/>
    </vehicle>
    <vehicle id="edge_3_4#4.3" depart="13.99">
        <route edges="edge_3_4#4 edge_4_1#0 edge_4_1#1 edge_4_1#2 ramp_1_NE edge_1_101#1 edge_1_101#2 edge_1_101#3 edge_1_101#4 edge_1_101#5 edge_1_101#5.164"/>
    </vehicle>
    <vehicle id="edge_107_3#3.5" depart="14.02">
        <route edges="edge_107_3#3 edge_3_2#0 edge_3_2#1 edge_3_2#2 edge_3_2#3 edge_3_2#4 ramp_2_NE edge_2_1#1 edge_2_1#2 edge_2_1#3 41205233#1 41205233#2"/>
    </vehicle>
    <vehicle id="edge_3_2#5.4" depart="14.16">
        <route edges="edge_3_2#5 edge_2_103#0 edge_2_103#1 edge_2_103#2 edge_2_103#3 edge_2_103#4"/>
    </vehicle>
    <vehicle id="edge_9_3#5.3" depart="14.25">
        <route edges="edge_9_3#5 edge_3_4#0 edge_3_4#1 edge_3_4#2 41205403#1 41205403#1.120 41205403#2 edge_2_1#5 edge_2_1#6 edge_2_1#7 edge_2_1#8 edge_2_1#9 ramp_1_SE edge_1_4#1 edge_1_4#2 edge_1_4#3 edge_4_3#0 edge_4_3#1 ramp_3_NW edge_3_2#1 edge_3_2#2 edge_3_2#3 edge_3_2#4 ramp_2_NE edge_2_1#1 edge_2_1#2 edge_2_1#3 41205233#1 41205233#2"/>
    </vehicle>
    <vehicle id="edge_2_1#10.4" depart="14.63">
        <route edges="edge_2_1#10 edge_1_101#0 edge_1_101#1 edge_1_101#2 edge_1_101#3 -32868406#9 edge_102_1#4 ramp_1_SW edge_1_2#1 41205287#1"/>
    </vehicle>
    <vehicle id="edge_102_1#6.3" depart="14.96">
        <route edges="edge_102_1#6 edge_1_101#0 edge_1_101#1 edge_1_101#2 edge_1_101#3 edge_1_101#4 edge_1_101#5 -41212224#5"/>
    </vehicle>
    <vehicle id="edge_103_2#5.7" depart="15.04">
        <route edges="edge_103_2#5 edge_2_3#0 edge_2_3#1 edge_2_3#2 edge_2_3#3 edge_2_3#4 ramp_3_SW edge_3_9#1 edge_3_9#2 edge_3_9#3 edge_3_9#4 ramp_9_NW"/>
    </vehicle>
    <vehicle id="edge_5_6#4.6" depart="15.08">
        <route edges="edge_5_6#4 edge_6_104#0 edge_6_104#1"/>
    </vehicle>
    <vehicle id="edge_4_3#2.4" depart="15.35">
        <route edges="edge_4_3#2 edge_3_107#0 edge_3_107#1 edge_3_107#2"/>
    </vehicle>
    <vehicle id="edge_3_9#5.5" depart="15.37">
        <route edges="edge_3_9#5 edge_9_8#0 edge_9_8#1 edge_9_8#2 edge_9_8#3 ramp_8_NW edge_8_7#1 edge_8_7#2 edge_8_7#3 edge_7_6#0 edge_7_6#1 edge_7_6#2 289432764"/>
    </vehicle>
    <vehicle id="edge_1_4#3.5" depart="15.44">
        <route edges="edge_1_4#3 edge_4_108#0 edge_108_4#6 edge_4_3#0 41205403#1 -gneE84"/>
    </vehicle>
    <vehicle id="edge_4_1#3.2" depart="15.45">
        <route edges="edge_4_1#3 edge_1_102#0 edge_1_102#1 -32868406#6"/>
    </vehicle>
    <vehicle id="edge_8_9#5.3" depart="15.98">
        <route edges="edge_8_9#5 edge_9_3#0 edge_9_3#1 edge_9_3#2 edge_9_3#3 edge_9_3#4 ramp_3_SE edge_3_107#1 edge_3_107#2"/>
    </vehicle>
    <vehicle id="edge_8_7#3.2" depart="16.07">
        <route edges="edge_8_7#3 edge_7_6#0 edge_7_6#1 edge_7_6#2 edge_7_6#3 edge_7_6#4 edge_7_6#5 ramp_6_NE edge_6_5#1 edge_6_5#2 edge_6_5#3 edge_6_5#4 edge_6_5#5 edge_6_5#6 edge_6_5#8 edge_6_5#9 edge_5_2#0 edge_5_2#1 edge_5_2#2 edge_5_2#3 edge_5_2#4 ramp_2_SE edge_2_3#1 edge_2_3#2 edge_2_3#3 edge_2_3#4 ramp_3_SW edge_3_9#1 edge_3_9#2 edge_3_9#3 edge_3_9#4 ramp_9_NW"/>
    </vehicle>
    <vehicle id="edge_101_1#5.7" depart="16.10">
        <route edges="edge_101_1#5 edge_1_4#0 edge_1_4#1 edge_1_4#2 edge_1_4#3 edge_4_3#0 41205403#1 -gneE84"/>
    </vehicle>
    <vehicle id="edge_107_3#2.1" depart="16.14">
        <route edges="edge_107_3#2 ramp_3_NE edge_3_4#1 edge_3_4#2 41205403#1 -gneE84"/>
    </vehicle>
    <vehicle id="edge_5_2#5.4" depart="16.27">
        <route edges="edge_5_2#5 edge_2_1#0 edge_2_1#1 edge_2_1#2 edge_2_1#3 edge_2_1#4 edge_2_1#5 edge_2_1#6 edge_2_1#7 edge_2_1#8 41205287#1"/>
    </vehicle>
    <vehicle id="edge_105_8#9.3" depart="16.44">
        <route edges="edge_105_8#9 edge_8_106#0 139400810"/>
    </vehicle>
    <vehicle id="edge_1_2#12.6" depart="16.58">
        <route edges="edge_1_2#12 edge_2_3#0 edge_2_3#1 edge_2_3#2 edge_2_3#3 edge_2_3#4 ramp_3_SW edge_3_9#1 edge_3_9#2 edge_3_9#3 edge_3_9#4 ramp_9_NW"/>
    </vehicle>
    <vehicle id="edge_2_3#5.6" depart="16.63">
        <route edges="edge_2_3#5 edge_3_107#0 edge_3_107#1 edge_3_107#2"/>
    </vehicle>
    <vehicle id="edge_9_8#4.5" depart="16.65">
        <route edges="edge_9_8#4 edge_8_106#0 edge_8_106#1 edge_8_106#2 edge_8_106#3 edge_8_106#4 edge_8_106#5 edge_8_106#6 edge_8_106#7 edge_8_106#8 -139284189 139283375#1"/>
    </vehicle>
    <vehicle id="edge_108_4#6.1" depart="16.74">
        <route edges="edge_108_4#6 edge_4_3#0 edge_4_3#1 ramp_3_NW edge_3_2#1 edge_3_2#2 edge_3_2#3 edge_3_2#4 ramp_2_NE edge_2_1#1 edge_2_1#2 edge_2_1#3 edge_2_1#4 edge_2_1#5 edge_2_1#6 32868409#1 32868409#2.1 -gneE83"/>
    </vehicle>
    <vehicle id="edge_107_3#3.6" depart="16.82">