<?xml version="1.0" encoding="UTF-8"?>

<!-- generated on 01/16/21 13:12:55 by Eclipse SUMO netedit Version 1.7.0
<configuration xmlns:xsi="http://www.w3.org/2001/XMLSchema-instance" xsi:noNamespaceSchemaLocation="http://sumo.dlr.de/xsd/netconvertConfiguration.xsd">

    <input>
        <sumo-net-file value="C:\Users\cau\Documents\GitHub\G15_Capstone\TrainingGym\Scenarios\VitalTri\VitalTriPM\VitalTriPM.net.xml"/>
    </input>

    <output>
        <output-file value="C:\Users\cau\Documents\GitHub\G15_Capstone\TrainingGym\Scenarios\VitalTri\VitalTriPM\VitalTriPM.net.xml"/>
        <output.street-names value="true"/>
    </output>

    <processing>
        <geometry.min-radius.fix.railways value="false"/>
        <geometry.max-grade.fix value="false"/>
        <offset.disable-normalization value="true"/>
        <lefthand value="false"/>
    </processing>

    <junctions>
        <no-turnarounds value="true"/>
        <junctions.corner-detail value="5"/>
        <junctions.limit-turn-speed value="5.5"/>
        <rectangular-lane-cut value="false"/>
    </junctions>

    <pedestrian>
        <walkingareas value="false"/>
    </pedestrian>

    <netedit>
        <route-files value="C:\Users\cau\Documents\GitHub\G15_Capstone\TrainingGym\Scenarios\VitalTri\VitalTriPM\VitalTriPM_Optimized.rou.xml"/>
    </netedit>

    <report>
        <aggregate-warnings value="5"/>
    </report>

</configuration>
-->

<routes xmlns:xsi="http://www.w3.org/2001/XMLSchema-instance" xsi:noNamespaceSchemaLocation="http://sumo.dlr.de/xsd/routes_file.xsd">
    <vehicle id="0" depart="0.00">
        <route edges="edge_9_3#5 edge_3_4#0 edge_3_4#1 edge_3_4#2 edge_3_4#3 edge_3_4#4 edge_4_1#0 edge_4_1#1 edge_4_1#2 ramp_1_NE edge_1_101#1 edge_1_101#2 edge_1_101#3 edge_1_101#4 edge_1_101#5" color="yellow"/>
    </vehicle>
    <vehicle id="1" depart="0.29">
        <route edges="edge_4_3#2 edge_3_9#0 edge_3_9#1 edge_3_9#2 edge_3_9#3 edge_3_9#4 ramp_9_NW" color="yellow"/>
    </vehicle>
    <vehicle id="2" depart="0.59">
        <route edges="edge_101_1#5 edge_1_2#0 edge_1_2#1 41205287#1 41205375#2 32868406#6 edge_102_1#4 ramp_1_SW" color="yellow"/>
    </vehicle>
    <vehicle id="3" depart="0.88">
        <route edges="edge_1_2#12 edge_2_5#0 edge_2_5#1 edge_2_5#2 edge_2_5#3 edge_5_6#0 edge_6_5#9 edge_110_5#0" color="yellow"/>
    </vehicle>
    <vehicle id="4" depart="1.18">
        <route edges="edge_2_3#5 edge_3_4#0 edge_3_4#1 edge_3_4#2 edge_3_4#3 edge_3_4#4 edge_4_1#0 edge_4_1#1 edge_4_1#2 ramp_1_NE edge_1_101#1 edge_1_101#2 edge_1_101#3 edge_1_101#4 edge_1_101#5" color="yellow"/>
    </vehicle>
    <vehicle id="5" depart="1.47">
        <route edges="edge_101_1#5 edge_1_4#0 edge_1_4#1 edge_1_4#2 edge_1_4#3 -32868409#2 -32868409#1 edge_2_1#7 edge_2_1#8 edge_2_1#9 ramp_1_SE" color="yellow"/>
    </vehicle>
    <vehicle id="6" depart="1.77">
        <route edges="edge_101_1#5 edge_1_2#0 edge_1_2#1 41205287#1 41205375#2 32868406#6 32868406#9 gneE79" color="yellow"/>
    </vehicle>
    <vehicle id="7" depart="2.06">
        <route edges="edge_109_6#3 edge_6_5#0 edge_6_5#1 edge_6_5#2 edge_6_5#3 edge_6_5#4 edge_5_6#3 edge_5_6#4 edge_6_104#0 edge_6_104#1" color="yellow"/>
    </vehicle>
    <vehicle id="8" depart="2.36">
        <route edges="edge_9_3#5 edge_3_4#0 edge_3_4#1 edge_3_4#2 edge_3_4#3 edge_3_4#4 edge_4_1#0 edge_4_1#1 edge_4_1#2 ramp_1_NE edge_1_101#1 edge_1_101#2 edge_1_101#3 edge_1_101#4 -41208868#6 -41208868#3 41208868#3 edge_1_102#3 -41212224#2 -41205375#8 -41208868#2 41208868#2 41205375#8 41205375#9 -32868405#0 32868405#0 -41205375#9 41212224#2 edge_1_102#4" color="yellow"/>
    </vehicle>
    <vehicle id="9" depart="2.65">
        <route edges="edge_9_8#4 edge_8_106#0 edge_8_106#1 edge_8_106#2 edge_8_106#3 -139283399 edge_106_8#8 edge_8_106#4 edge_8_106#5 edge_8_106#6 edge_106_8#6 -139283171#7 -139283171#6 139284058#5 139284058#6 139284058#7 139284058#8 edge_105_8#7 edge_105_8#8 edge_105_8#9 edge_8_7#0 edge_8_7#1 edge_8_7#2 edge_8_7#3 edge_7_6#0 edge_7_6#1 edge_7_6#2 289432764" color="yellow"/>
    </vehicle>
    <vehicle id="10" depart="2.94">
        <route edges="edge_1_2#12 edge_2_5#0 edge_2_5#1 edge_2_5#2 edge_2_5#3 edge_5_6#0 edge_6_5#9 edge_110_5#0" color="yellow"/>
    </vehicle>
    <vehicle id="11" depart="3.24">
        <route edges="edge_108_4#6 edge_4_1#0 edge_1_4#3 edge_4_108#0 edge_4_108#1 155378620#1 -155378620#1 -155378620#0 155378620#0 edge_4_108#2 edge_4_108#3 edge_4_108#4 edge_4_108#5 edge_108_4#1 edge_108_4#2 edge_108_4#3 edge_108_4#4 edge_108_4#5" color="yellow"/>
    </vehicle>
    <vehicle id="12" depart="3.53">
        <route edges="edge_4_1#3 edge_1_2#0 edge_1_2#1 edge_1_2#2 edge_1_2#3 41205377 -41205377 edge_1_2#4 edge_1_2#5 edge_2_1#5 edge_2_1#6 edge_2_1#7 edge_2_1#8 41205287#1 -41205375#1 41205375#1 -41205287#1" color="yellow"/>
    </vehicle>
    <vehicle id="13" depart="3.83">
        <route edges="edge_103_2#4 ramp_2_SW edge_2_5#1 -130655020#7 -130655020#6 -130655057#5 130655214#4 130655325#0 130655020#7 edge_2_5#2 edge_2_5#3 edge_110_5#0" color="yellow"/>
    </vehicle>
    <vehicle id="14" depart="4.12">
        <route edges="edge_2_3#5 edge_3_107#0 edge_3_107#1 edge_3_107#2" color="yellow"/>
    </vehicle>
    <vehicle id="15" depart="4.42">
        <route edges="edge_109_6#3 edge_6_5#0 edge_6_5#1 edge_6_5#2 edge_6_5#3 edge_6_5#4 -130655214#5 -130655278 130655278 130655214#5 edge_5_6#3 edge_5_6#4 edge_6_104#0 edge_6_104#1" color="yellow"/>
    </vehicle>
    <vehicle id="16" depart="4.71">
        <route edges="edge_101_1#5 edge_1_2#0 edge_1_2#1 41205287#1 41205287#2 -gneE66 32868406#2 41208590#1 41205375#5 -41208868#2 -41208868#1 -41209072#3 41209072#3 -41208868#0 100317222#11 -32868405#3 -32868405#2 -32868405#0 32868405#0 32868405#1 41212177#0 -41212177#0 32868405#3 -100317222#12 41208868#0 41208868#1 -41212173#1 41212224#1 41205375#9 -41205375#9 41212224#2 41212224#5 -41212224#5 edge_102_1#1 41208868#6 edge_1_101#5" color="yellow"/>
    </vehicle>
    <vehicle id="17" depart="5.00">
        <route edges="edge_3_2#5 edge_2_103#0 edge_2_103#1 edge_2_103#2 edge_2_103#3 edge_2_103#4" color="yellow"/>
    </vehicle>
    <vehicle id="18" depart="5.30">
        <route edges="edge_2_3#5 edge_3_107#0 edge_3_107#1 edge_3_107#2" color="yellow"/>
    </vehicle>
    <vehicle id="19" depart="5.59">
        <route edges="edge_9_8#4 edge_8_105#0 edge_8_105#1 139283095#1 139284206#1 139284206#2 -139283275#3 -139283275#0 -139283277#1 139283277#1 139283277#2 139283275#2 139283275#5 139283275#6 -139283304#2 139283304#2 -139283275#6 -139283275#5 139284206#4 139284206#5 139284206#7 139284206#8 -139284206#8 -139284206#7 139283287#0 139283286#1 -139283286#2 edge_8_105#6 edge_8_105#7 139284193#2 139284193#4 139283305#3 139283305#4 -139283288#0 -139283305#3 -139284193#4 139284206#10 139284206#11 -139284206#11 -139284206#10 -139284193#2 edge_8_105#8 edge_8_105#9 edge_8_105#10" color="yellow"/>
    </vehicle>
    <vehicle id="20" depart="5.89">
        <route edges="edge_1_2#12 edge_2_5#0 edge_2_5#1 -130655020#7 -130655325#1 130655325#0 130655020#7 edge_2_5#2 edge_2_5#3 edge_110_5#0" color="yellow"/>
    </vehicle>
    <vehicle id="21" depart="6.18">
        <route edges="edge_4_1#3 edge_1_102#0 edge_1_102#1 edge_1_102#2 edge_1_102#3 41212224#5 -41212224#5 edge_1_102#4" color="yellow"/>
    </vehicle>
    <vehicle id="22" depart="6.48">
        <route edges="edge_2_1#10 edge_1_101#0 edge_1_101#1 edge_1_101#2 edge_1_101#3 -32868406#9 edge_1_102#2 edge_1_102#3 edge_1_102#4" color="yellow"/>
    </vehicle>
    <vehicle id="23" depart="6.77">
        <route edges="edge_9_8#4 edge_8_105#0 edge_8_105#1 edge_8_105#2 edge_8_105#3 139283275#2 139284206#4 139284206#5 139283287#0 edge_8_105#6 edge_8_105#7 edge_8_105#8 edge_8_105#9 edge_8_105#10" color="yellow"/>
    </vehicle>
    <vehicle id="24" depart="7.07">
        <route edges="edge_9_8#4 edge_8_105#0 edge_8_105#1 139283095#1 139284206#1 -139284206#1 139283095#3 139283304#1 139283304#2 -139283275#6 -139283275#5 -139284206#2 139284206#2 139284206#4 -139284206#4 139283275#5 139283275#6 -139283304#2 -139283304#1 139283094#0 -139283094#0 -139283095#3 -139283095#2 edge_105_8#7 edge_105_8#8 edge_105_8#9 edge_8_9#0 edge_8_9#1 edge_8_9#2 edge_8_9#3 289430973#0" color="yellow"/>
    </vehicle>
    <vehicle id="25" depart="7.36">
        <route edges="edge_9_8#4 edge_8_105#0 edge_8_105#1 -139284058#9 -139284054#4 -139284054#3 -139284054#2 -139284054#1 139284054#1 139284054#2 139283277#2 edge_8_105#4 edge_8_105#5 edge_105_8#3 edge_105_8#4 -139283275#0 139284054#3 139284054#4 139284058#8 139283095#1 139283095#3 139283094#0 139283094#1 -139283275#6 -139283275#5 -139284206#2 139284206#2 139284206#4 139284206#5 139283287#0 edge_8_105#6 edge_8_105#7 edge_8_105#8 edge_8_105#9 edge_105_8#1 139284193#2 139284193#4 -139283305#1 -139283305#0 139283305#0 139283305#1 139284193#6 139284193#7 -139284193#8 -139284193#6 139283305#3 139283305#4 -139283288#0 -139283305#3 -139284193#4 -139284206#8 -139284206#7 -139284206#5 -139284206#4 -139283275#3 edge_105_8#5 edge_105_8#6 edge_105_8#7 edge_105_8#8 edge_105_8#9 edge_8_9#0 edge_8_9#1 edge_8_9#2 edge_8_9#3 edge_8_9#4 edge_8_9#5 edge_9_3#0 edge_9_3#1 edge_9_3#2 edge_9_3#3 edge_9_3#4 ramp_3_SE edge_3_107#1 edge_3_107#2" color="yellow"/>
    </vehicle>
    <vehicle id="26" depart="7.65">
        <route edges="edge_1_2#12 edge_2_5#0 edge_2_5#1 -130655020#7 -130655325#1 130655325#0 130655020#7 edge_2_5#2 edge_2_5#3 edge_110_5#0" color="yellow"/>
    </vehicle>
    <vehicle id="27" depart="7.95">
        <route edges="edge_101_1#5 edge_1_2#0 edge_1_2#1 41205287#1 41205287#2 -41205287#3 41205375#2 -32868406#5 32868406#5 32868406#6 edge_102_1#4 ramp_1_SW" color="yellow"/>
    </vehicle>
    <vehicle id="28" depart="8.24">
        <route edges="edge_103_2#4 ramp_2_SW edge_2_5#1 -130655020#7 130655020#7 edge_2_5#2 edge_2_5#3 edge_110_5#0" color="yellow"/>
    </vehicle>
    <vehicle id="29" depart="8.54">
        <route edges="edge_104_6#1 edge_6_5#0 edge_6_5#1 edge_6_5#2 edge_6_5#3 edge_6_5#4 edge_6_5#5 edge_6_5#6 edge_5_6#2 -130655214#5 -130655278 130655057#1 130655214#4 130655325#0 -130655325#1 -130655214#4 -130655214#3 -130655214#2 -130655171#1 130655171#1 130655171#2 130655171#3 130655020#2 130655020#5 130655020#6 130655020#7 edge_2_5#2 edge_2_5#3 edge_5_6#0 edge_6_5#9 edge_110_5#0" color="yellow"/>
    </vehicle>
    <vehicle id="30" depart="8.83">
        <route edges="edge_101_1#5 edge_1_2#0 edge_1_2#1 41205287#1 -41205287#1 edge_1_2#2 edge_1_2#3 41205377 -41205375#0 41205375#0 41205375#1 41205375#2 41205375#4 -41205375#4 32868406#6 32868406#9 gneE79" color="yellow"/>
    </vehicle>
    <vehicle id="31" depart="9.13">
        <route edges="edge_9_8#4 edge_8_105#0 edge_8_105#1 139283095#1 -139283095#2 edge_8_105#2 edge_8_105#3 -139283275#0 -139284054#2 -139284054#1 -139283286#4 -139283286#3 -139283286#2 -139283287#1 139284206#7 -139284206#7 -139283288#0 -139283305#3 -139283305#1 139283305#1 139284193#6 139284193#7 -139284193#8 -139284193#6 139283305#3 139283305#4 139283287#0 edge_105_8#3 edge_105_8#4 edge_105_8#5 edge_105_8#6 edge_105_8#7 edge_105_8#8 edge_105_8#9 edge_8_9#0 edge_8_9#1 edge_8_9#2 edge_8_9#3 289430973#0" color="yellow"/>
    </vehicle>
    <vehicle id="32" depart="9.42">
        <route edges="edge_4_1#3 edge_1_2#0 edge_1_2#1 edge_1_2#2 edge_1_2#3 41205377 -41205377 edge_1_2#4 edge_1_2#5 edge_2_1#5 edge_2_1#6 edge_2_1#7 edge_2_1#8 41205287#1 -41205375#1 41205375#1 -41205287#1" color="yellow"/>
    </vehicle>
    <vehicle id="33" depart="9.72">
        <route edges="edge_2_1#10 edge_1_101#0 edge_1_101#1 edge_1_101#2 edge_1_101#3 edge_1_101#4 edge_1_101#5" color="yellow"/>
    </vehicle>
    <vehicle id="34" depart="10.01">
        <route edges="edge_2_1#10 edge_1_101#0 edge_1_101#1 edge_1_101#2 edge_1_101#3 edge_1_101#4 -41208868#6 edge_102_1#2 edge_102_1#3 edge_1_102#2 -41208868#3 41205375#8 41205375#9 32868405#1 32868405#3 -32868405#3 41212177#0 41212224#0 -41212224#0 -41212177#0 -32868405#2 -41205375#9 -41212224#1 41212173#0 41208868#2 41208868#3 edge_1_102#3 41212224#5 -41212224#5 -41212224#2 41212224#2 edge_102_1#1 41208868#6 edge_1_101#5" color="yellow"/>
    </vehicle>
    <vehicle id="35" depart="10.30">
        <route edges="edge_109_6#3 edge_6_5#0 edge_6_5#1 edge_6_5#2 edge_6_5#3 edge_6_5#4 edge_5_6#3 edge_5_6#4 edge_6_104#0 edge_6_104#1" color="yellow"/>
    </vehicle>
    <vehicle id="36" depart="10.60">
        <route edges="edge_104_6#1 edge_6_5#0 edge_6_5#1 edge_6_5#2 edge_6_5#3 edge_6_5#4 edge_6_5#5 edge_6_5#6 edge_6_5#8 edge_5_6#1 edge_5_6#2 -130655214#5 130655325#0 -130655020#6 130655020#6 -130655325#1 130655214#5 edge_5_6#3 edge_5_6#4 edge_6_104#0 edge_6_104#1" color="yellow"/>
    </vehicle>
    <vehicle id="37" depart="10.89">
        <route edges="edge_1_2#12 edge_2_5#0 edge_2_5#1 edge_2_5#2 edge_2_5#3 edge_5_6#0 edge_5_6#1 edge_5_6#2 edge_5_6#3 edge_5_6#4 edge_6_104#0 edge_6_104#1" color="yellow"/>
    </vehicle>
    <vehicle id="38" depart="11.19">
        <route edges="edge_5_2#5 edge_2_103#0 edge_2_103#1 edge_2_103#2 edge_2_103#3 edge_2_103#4" color="yellow"/>
    </vehicle>
    <vehicle id="39" depart="11.48">
        <route edges="edge_3_4#4 edge_4_1#0 edge_1_4#3 edge_4_3#0 edge_3_4#3" color="yellow"/>
    </vehicle>
    <vehicle id="40" depart="11.78">
        <route edges="edge_3_2#5 edge_2_103#0 edge_2_103#1 edge_2_103#2 edge_2_103#3 edge_2_103#4" color="yellow"/>
    </vehicle>
    <vehicle id="41" depart="12.07">
        <route edges="edge_2_1#10 edge_1_102#0 edge_1_102#1 edge_1_102#2 -41208868#3 -41208868#2 41208868#2 41208868#3 41208868#6 edge_1_101#5" color="yellow"/>
    </vehicle>
    <vehicle id="42" depart="12.37">
        <route edges="edge_104_6#1 edge_6_5#0 edge_6_5#1 edge_6_5#2 edge_6_5#3 edge_6_5#4 -130655214#5 -130655278 130655057#1 -130655214#3 -130655214#2 130655171#2 -130655297 -130655195#0 -130655214#0 130655214#0 130655195#0 130655297 -130655171#2 130655214#2 130655139 130655020#5 130655020#6 -130655325#1 130655214#5 edge_6_5#5 edge_6_5#6 edge_5_6#2 edge_5_6#3 edge_5_6#4 edge_6_104#0 edge_6_104#1" color="yellow"/>
    </vehicle>
    <vehicle id="43" depart="12.66">
        <route edges="edge_104_6#1 edge_6_5#0 edge_6_5#1 edge_6_5#2 edge_6_5#3 edge_6_5#4 edge_6_5#5 edge_6_5#6 edge_6_5#8 edge_6_5#9 edge_110_5#0" color="yellow"/>
    </vehicle>
    <vehicle id="44" depart="12.95">
        <route edges="edge_2_1#10 edge_1_101#0 edge_1_101#1 edge_1_101#2 edge_1_101#3 edge_1_101#4 -41208868#6 -41208868#3 41205375#8 -41205375#8 41208868#3 41208868#6 edge_1_101#5" color="yellow"/>
    </vehicle>
    <vehicle id="45" depart="13.25">
        <route edges="edge_109_6#3 edge_6_5#0 edge_6_5#1 edge_6_5#2 edge_6_5#3 edge_6_5#4 -130655214#5 -130655278 130655278 130655214#5 edge_5_6#3 edge_5_6#4 edge_6_104#0 edge_6_104#1" color="yellow"/>
    </vehicle>
    <vehicle id="46" depart="13.54">
        <route edges="edge_2_1#10 edge_1_101#0 edge_1_101#1 edge_1_101#2 edge_1_101#3 edge_1_101#4 edge_1_101#5" color="yellow"/>
    </vehicle>
    <vehicle id="47" depart="13.84">
        <route edges="edge_1_2#12 edge_2_5#0 edge_2_5#1 -130655020#7 -130655325#1 -130655214#4 -130655214#3 130655139 -130655141 -130655214#2 130655171#2 130655171#3 -130655020#1 -130655195#1 -130655195#0 130655214#1 130655214#2 130655214#3 130655057#3 -130655020#5 130655020#5 -130655057#5 130655214#4 -130655278 130655057#1 -130655057#2 130655278 130655325#0 -130655020#6 130655020#6 130655020#7 edge_2_5#2 edge_2_5#3 edge_110_5#0" color="yellow"/>
    </vehicle>
    <vehicle id="48" depart="14.13">
        <route edges="edge_104_6#1 edge_6_5#0 edge_6_5#1 edge_6_5#2 edge_6_5#3 edge_6_5#4 -130655214#5 -130655278 130655057#1 -130655214#3 -130655214#2 130655171#2 -130655297 -130655195#0 -130655214#0 130655214#0 130655195#0 130655297 -130655171#2 130655214#2 130655139 130655020#5 130655020#6 -130655325#1 130655214#5 edge_6_5#5 edge_6_5#6 edge_5_6#2 edge_5_6#3 edge_5_6#4 edge_6_104#0 edge_6_104#1" color="yellow"/>
    </vehicle>
    <vehicle id="49" depart="14.43">
        <route edges="edge_1_2#12 edge_2_5#0 edge_2_5#1 -130655020#7 -130655325#1 130655325#0 -130655020#6 -130655057#5 130655214#4 130655214#5 edge_6_5#5 edge_6_5#6 edge_5_6#2 -130655214#5 -130655214#4 130655057#3 130655020#6 130655020#7 edge_2_5#2 edge_2_5#3 edge_110_5#0" color="yellow"/>
    </vehicle>
    <vehicle id="50" depart="14.72">
        <route edges="edge_9_8#4 edge_8_105#0 edge_8_105#1 139283095#1 139284206#1 -139284206#1 139283095#3 139283304#1 139283304#2 -139283275#6 -139283275#5 -139284206#2 139284206#2 139284206#4 -139284206#4 139283275#5 139283275#6 -139283304#2 -139283304#1 139283094#0 -139283094#0 -139283095#3 -139283095#2 edge_105_8#7 edge_105_8#8 edge_105_8#9 edge_8_9#0 edge_8_9#1 edge_8_9#2 edge_8_9#3 289430973#0" color="yellow"/>
    </vehicle>
    <vehicle id="51" depart="15.01">
        <route edges="edge_4_3#2 edge_3_107#0 edge_3_107#1 edge_3_107#2" color="yellow"/>
    </vehicle>
    <vehicle id="52" depart="15.31">
        <route edges="edge_1_2#12 edge_2_3#0 edge_2_3#1 edge_2_3#2 edge_2_3#3 edge_2_3#4 ramp_3_SW edge_3_9#1 edge_3_9#2 edge_3_9#3 edge_3_9#4 ramp_9_NW" color="yellow"/>
    </vehicle>
    <vehicle id="53" depart="15.60">
        <route edges="edge_1_2#12 edge_2_5#0 edge_2_5#1 -130655020#7 130655020#7 edge_2_5#2 edge_2_5#3 edge_5_6#0 edge_5_6#1 edge_5_6#2 edge_5_6#3 edge_5_6#4 edge_6_104#0 edge_6_104#1" color="yellow"/>
    </vehicle>
    <vehicle id="54" depart="15.90">
        <route edges="edge_101_1#5 edge_1_2#0 edge_1_2#1 41205287#1 41205375#2 -32868406#5 41208590#1 41205375#5 41208868#3 edge_102_1#2 edge_102_1#3 32868406#9 gneE79" color="yellow"/>
    </vehicle>
    <vehicle id="55" depart="16.19">
        <route edges="edge_3_2#5 edge_2_103#0 edge_2_103#1 edge_2_103#2 edge_2_103#3 edge_2_103#4" color="yellow"/>
    </vehicle>
    <vehicle id="56" depart="16.49">
        <route edges="edge_7_6#6 edge_6_104#0 edge_6_104#1" color="yellow"/>
    </vehicle>
    <vehicle id="57" depart="16.78">
        <route edges="edge_107_3#2 ramp_3_NE edge_3_4#1 edge_3_4#2 edge_3_4#3 edge_3_4#4 edge_4_108#0 edge_4_108#1 edge_4_108#2 edge_4_108#3 edge_4_108#4 edge_108_4#2 edge_108_4#3 edge_108_4#4 edge_108_4#5 edge_108_4#6 edge_4_3#0 41205403#1 41205403#2 edge_2_1#5 edge_2_1#6 edge_2_1#7 edge_2_1#8 edge_2_1#9 ramp_1_SE edge_1_4#1 edge_1_4#2 edge_1_4#3 -32868409#2 -32868409#1 edge_1_2#4 edge_1_2#5 edge_1_2#6 edge_1_2#7 edge_1_2#8 edge_1_2#9 edge_1_2#10 edge_1_2#11 ramp_2_NW edge_2_103#1 edge_2_103#2 edge_2_103#3 edge_2_103#4" color="yellow"/>
    </vehicle>
    <vehicle id="58" depart="17.08">
        <route edges="edge_1_2#12 edge_2_5#0 edge_2_5#1 -130655020#7 -130655325#1 -130655214#4 -130655214#3 -130655214#2 130655171#2 -130655297 130655297 130655171#3 130655020#2 -130655141 130655214#3 130655057#3 130655020#6 130655020#7 edge_2_5#2 edge_2_5#3 edge_5_6#0 edge_6_5#9 edge_110_5#0" color="yellow"/>
    </vehicle>
    <vehicle id="59" depart="17.37">
        <route edges="edge_3_4#4 edge_4_1#0 edge_1_4#3 edge_4_3#0 41205403#1 41205403#2 edge_1_2#6 edge_1_2#7 edge_2_1#2 edge_2_1#3 edge_2_1#4 -41205403#2 -41205403#1 edge_3_4#3" color="yellow"/>
    </vehicle>
    <vehicle id="60" depart="17.66">
        <route edges="edge_104_6#1 edge_6_5#0 edge_6_5#1 edge_6_5#2 edge_6_5#3 edge_6_5#4 -130655214#5 130655325#0 -130655325#1 -130655278 130655057#1 130655057#3 -130655020#5 -130655020#4 130655020#2 130655020#5 130655020#6 -130655020#6 -130655057#5 -130655057#2 130655278 130655214#5 edge_6_5#5 edge_6_5#6 edge_6_5#8 edge_6_5#9 edge_110_5#0" color="yellow"/>
    </vehicle>
    <vehicle id="61" depart="17.96">
        <route edges="edge_103_2#4 ramp_2_SW edge_2_5#1 edge_2_5#2 edge_2_5#3 edge_5_6#0 edge_5_6#1 edge_5_6#2 edge_5_6#3 edge_5_6#4 edge_6_104#0 edge_6_104#1" color="yellow"/>
    </vehicle>
    <vehicle id="62" depart="18.25">
        <route edges="edge_103_2#4 ramp_2_SW edge_2_5#1 -130655020#7 -130655020#6 -130655057#5 130655214#4 -130655278 130655278 -130655214#4 -130655214#3 130655139 -130655141 130655214#3 130655057#3 -130655020#5 -130655020#4 -130655171#3 -130655171#2 130655214#2 -130655214#2 130655171#2 130655171#3 130655020#2 130655020#5 130655020#6 130655020#7 edge_2_5#2 edge_2_5#3 edge_110_5#0" color="yellow"/>
    </vehicle>
    <vehicle id="63" depart="18.55">
        <route edges="edge_102_1#6 edge_1_4#0 edge_1_4#1 edge_1_4#2 edge_1_4#3 edge_4_3#0 41205403#1 41205403#2 edge_2_1#5 edge_2_1#6 41205377 -41205375#0 41205233#3 41205233#5 41205233#6 100317222#11 -32868405#3 41212177#0 -41212177#0 -32868405#2 32868405#1 32868405#3 -100317222#12 41208868#0 41208868#1 -41208868#1 -41209072#3 41209074#0 41209072#0 -41209072#2 41209074#1 32868406#2 32868406#5 41205375#4 -41208590#1 41208590#1 41205375#5 41205375#8 -41212224#1 41212224#1 -41205375#8 -41205375#7 -41205375#4 -32868406#5 -32868406#4 -gneE65 41205274#0 -41205274#1 -gneE66 -41209074#1 -41209074#0 41209072#3 -41208868#0 -100317222#10 -41205233#5 -41205233#4 41205375#0 41205375#1 41205375#2 32868406#6 32868406#9 gneE79" color="yellow"/>
    </vehicle>
    <vehicle id="64" depart="18.84">
        <route edges="edge_1_2#12 edge_2_5#0 edge_2_5#1 -130655020#7 -130655325#1 -130655214#4 -130655214#3 -130655214#2 130655171#2 -130655297 130655297 130655171#3 130655020#2 -130655141 130655214#3 130655057#3 130655020#6 130655020#7 edge_2_5#2 edge_2_5#3 edge_5_6#0 edge_6_5#9 edge_110_5#0" color="yellow"/>
    </vehicle>
    <vehicle id="65" depart="19.14">
        <route edges="edge_101_1#5 edge_1_2#0 edge_1_2#1 41205287#1 41205375#2 32868406#6 edge_102_1#4 ramp_1_SW" color="yellow"/>
    </vehicle>
    <vehicle id="66" depart="19.43">
        <route edges="edge_2_3#5 edge_3_107#0 edge_3_107#1 edge_3_107#2" color="yellow"/>
    </vehicle>
    <vehicle id="67" depart="19.73">
        <route edges="edge_7_6#6 edge_6_104#0 edge_6_104#1" color="yellow"/>
    </vehicle>
    <vehicle id="68" depart="20.02">
        <route edges="edge_4_1#3 edge_1_2#0 edge_1_2#1 edge_1_2#2 edge_1_2#3 41205377 -41205377 edge_1_2#4 edge_1_2#5 edge_2_1#5 edge_2_1#6 edge_2_1#7 edge_2_1#8 41205287#1 -41205375#1 41205375#1 -41205287#1" color="yellow"/>
    </vehicle>
    <vehicle id="69" depart="20.31">
        <route edges="edge_2_3#5 edge_3_107#0 edge_3_107#1 edge_3_107#2" color="yellow"/>
    </vehicle>
    <vehicle id="70" depart="20.61">
        <route edges="edge_5_2#5 edge_2_103#0 edge_2_103#1 edge_2_103#2 edge_2_103#3 edge_2_103#4" color="yellow"/>
    </vehicle>
    <vehicle id="71" depart="20.90">
        <route edges="edge_3_2#5 edge_2_103#0 edge_2_103#1 edge_2_103#2 edge_2_103#3 edge_2_103#4" color="yellow"/>
    </vehicle>
    <vehicle id="72" depart="21.20">
        <route edges="edge_3_2#5 edge_2_103#0 edge_2_103#1 edge_2_103#2 edge_2_103#3 edge_2_103#4" color="yellow"/>
    </vehicle>
    <vehicle id="73" depart="21.49">
        <route edges="edge_2_3#5 edge_3_107#0 edge_3_107#1 edge_3_107#2" color="yellow"/>
    </vehicle>
    <vehicle id="74" depart="21.79">
        <route edges="edge_2_1#10 edge_1_101#0 edge_1_101#1 edge_1_101#2 edge_1_101#3 edge_1_101#4 -41208868#6 edge_1_102#3 edge_1_102#4" color="yellow"/>
    </vehicle>
    <vehicle id="75" depart="22.08">
        <route edges="edge_3_2#5 edge_2_5#0 edge_2_5#1 edge_2_5#2 edge_2_5#3 edge_110_5#0" color="yellow"/>
    </vehicle>
    <vehicle id="76" depart="22.37">
        <route edges="edge_1_2#12 edge_2_5#0 edge_2_5#1 -130655020#7 -130655020#6 130655020#6 130655020#7 edge_2_5#2 edge_2_5#3 edge_110_5#0" color="yellow"/>
    </vehicle>
    <vehicle id="77" depart="22.67">
        <route edges="edge_3_2#5 edge_2_103#0 edge_2_103#1 edge_2_103#2 edge_2_103#3 edge_2_103#4" color="yellow"/>
    </vehicle>
    <vehicle id="78" depart="22.96">
        <route edges="edge_4_3#2 edge_3_107#0 edge_3_107#1 edge_3_107#2" color="yellow"/>
    </vehicle>
    <vehicle id="79" depart="23.26">
        <route edges="edge_2_3#5 edge_3_4#0 edge_3_4#1 edge_3_4#2 edge_3_4#3 edge_3_4#4 edge_4_1#0 edge_4_1#1 edge_4_1#2 ramp_1_NE edge_1_101#1 edge_1_101#2 edge_1_101#3 gneE79" color="yellow"/>
    </vehicle>
    <vehicle id="80" depart="23.55">
        <route edges="edge_109_6#3 edge_6_5#0 edge_6_5#1 edge_6_5#2 edge_6_5#3 edge_6_5#4 edge_6_5#5 edge_6_5#6 edge_5_6#2 edge_5_6#3 edge_5_6#4 edge_6_104#0 edge_6_104#1" color="yellow"/>
    </vehicle>
    <vehicle id="81" depart="23.85">
        <route edges="edge_7_8#6 edge_8_106#0 139400810 -139400810 edge_106_8#12 edge_106_8#13 edge_106_8#14 edge_8_9#0 edge_8_9#1 edge_8_9#2 edge_8_9#3 289430973#0" color="yellow"/>
    </vehicle>
    <vehicle id="82" depart="24.14">
        <route edges="edge_2_3#5 edge_3_107#0 edge_3_107#1 edge_3_107#2" color="yellow"/>
    </vehicle>
    <vehicle id="83" depart="24.44">
        <route edges="edge_7_6#6 edge_6_104#0 edge_6_104#1" color="yellow"/>
    </vehicle>
    <vehicle id="84" depart="24.73">
        <route edges="edge_2_3#5 edge_3_107#0 edge_3_107#1 edge_3_107#2" color="yellow"/>
    </vehicle>
    <vehicle id="85" depart="25.02">
        <route edges="edge_101_1#5 edge_1_2#0 edge_1_2#1 41205287#1 41205287#2 41205274#0 -41205233#5 41205233#5 41205233#6 -100317222#10 -41205274#1 -41205287#3 41205375#2 41205375#4 -41205375#4 32868406#6 32868406#9 gneE79" color="yellow"/>
    </vehicle>
    <vehicle id="86" depart="25.32">
        <route edges="edge_5_2#5 edge_2_1#0 edge_2_1#1 edge_2_1#2 edge_2_1#3 41205233#1 41205233#2 -41205233#2 -41205233#1 edge_1_2#7 edge_1_2#8 edge_1_2#9 edge_1_2#10 edge_1_2#11 ramp_2_NW edge_2_103#1 edge_2_103#2 edge_2_103#3 edge_2_103#4" color="yellow"/>
    </vehicle>
    <vehicle id="87" depart="25.61">
        <route edges="edge_101_1#5 edge_1_2#0 edge_1_2#1 41205287#1 41205287#2 -gneE66 32868406#2 41208590#1 41205375#5 -41208868#2 -41208868#1 -41209072#3 41209072#3 -41208868#0 100317222#11 -32868405#3 -32868405#2 -32868405#0 32868405#0 32868405#1 41212177#0 -41212177#0 32868405#3 -100317222#12 41208868#0 41208868#1 -41212173#1 41212224#1 41205375#9 -41205375#9 41212224#2 41212224#5 -41212224#5 edge_102_1#1 41208868#6 edge_1_101#5" color="yellow"/>
    </vehicle>
    <vehicle id="88" depart="25.91">
        <route edges="edge_102_1#6 edge_1_4#0 edge_1_4#1 edge_1_4#2 edge_1_4#3 edge_4_3#0 41205403#1 41205403#2 edge_2_1#5 edge_2_1#6 41205377 -41205375#0 41205233#3 41205233#5 41205233#6 100317222#11 -32868405#3 41212177#0 -41212177#0 -32868405#2 32868405#1 32868405#3 -100317222#12 41208868#0 41208868#1 -41208868#1 -41209072#3 41209074#0 41209072#0 -41209072#2 41209074#1 32868406#2 32868406#5 41205375#4 -41208590#1 41208590#1 41205375#5 41205375#8 -41212224#1 41212224#1 -41205375#8 -41205375#7 -41205375#4 -32868406#5 -32868406#4 -gneE65 41205274#0 -41205274#1 -gneE66 -41209074#1 -41209074#0 41209072#3 -41208868#0 -100317222#10 -41205233#5 -41205233#4 41205375#0 41205375#1 41205375#2 32868406#6 32868406#9 gneE79" color="yellow"/>
    </vehicle>
    <vehicle id="89" depart="26.20">
        <route edges="edge_9_3#5 edge_3_4#0 edge_3_4#1 edge_3_4#2 edge_3_4#3 edge_3_4#4 edge_4_1#0 edge_4_1#1 edge_4_1#2 ramp_1_NE edge_1_101#1 edge_1_101#2 edge_1_101#3 edge_1_101#4 -41208868#6 -41208868#3 41208868#3 edge_1_102#3 -41212224#2 -41205375#8 -41208868#2 41208868#2 41205375#8 41205375#9 -32868405#0 32868405#0 -41205375#9 41212224#2 edge_1_102#4" color="yellow"/>
    </vehicle>
    <vehicle id="90" depart="26.50">
        <route edges="edge_104_6#1 edge_6_5#0 edge_6_5#1 edge_6_5#2 edge_6_5#3 edge_6_5#4 edge_6_5#5 edge_6_5#6 edge_5_6#2 -130655214#5 -130655278 130655057#1 130655214#4 130655325#0 -130655325#1 -130655214#4 -130655214#3 -130655214#2 -130655171#1 130655171#1 130655171#2 130655171#3 130655020#2 130655020#5 130655020#6 130655020#7 edge_2_5#2 edge_2_5#3 edge_5_6#0 edge_6_5#9 edge_110_5#0" color="yellow"/>
    </vehicle>
    <vehicle id="91" depart="26.79">
        <route edges="edge_9_8#4 edge_8_105#0 edge_8_105#1 139283095#1 139284206#1 139284206#2 -139283275#3 -139283275#0 -139283277#1 139283277#1 139283277#2 139283275#2 139283275#5 139283275#6 -139283304#2 139283304#2 -139283275#6 -139283275#5 139284206#4 139284206#5 139284206#7 139284206#8 -139284206#8 -139284206#7 139283287#0 139283286#1 -139283286#2 edge_8_105#6 edge_8_105#7 139284193#2 139284193#4 139283305#3 139283305#4 -139283288#0 -139283305#3 -139284193#4 139284206#10 139284206#11 -139284206#11 -139284206#10 -139284193#2 edge_8_105#8 edge_8_105#9 edge_8_105#10" color="yellow"/>
    </vehicle>
    <vehicle id="92" depart="27.09">
        <route edges="edge_1_2#12 edge_2_5#0 edge_2_5#1 -130655020#7 -130655325#1 -130655214#4 -130655214#3 -130655214#2 130655171#2 -130655297 130655297 130655171#3 130655020#2 -130655141 130655214#3 130655057#3 130655020#6 130655020#7 edge_2_5#2 edge_2_5#3 edge_5_6#0 edge_6_5#9 edge_110_5#0" color="yellow"/>
    </vehicle>
    <vehicle id="93" depart="27.38">
        <route edges="edge_7_8#6 edge_8_106#0 139400810 -139400810 edge_8_106#1 edge_8_106#2 edge_106_8#10 -139283299#2 139283299#2 edge_106_8#11 edge_106_8#12 edge_106_8#13 edge_106_8#14 edge_8_7#0 edge_8_7#1 edge_8_7#2 edge_8_7#3 edge_7_6#0 edge_7_6#1 edge_7_6#2 289432764" color="yellow"/>
    </vehicle>
    <vehicle id="94" depart="27.67">
        <route edges="edge_101_1#5 edge_1_2#0 edge_1_2#1 edge_1_2#2 edge_1_2#3 41205377 -41205375#0 -41205233#2 -41205233#1 edge_1_2#7 edge_2_1#2 edge_2_1#3 41205233#1 41205233#2 41205375#0 41205375#1 41205287#2 41205274#0 -41205274#1 -gneE66 32868406#2 41208590#1 -41208590#1 -32868406#4 -gneE65 -41205287#3 -41205287#1" color="yellow"/>
    </vehicle>
    <vehicle id="95" depart="27.97">
        <route edges="edge_103_2#4 ramp_2_SW edge_2_5#1 edge_2_5#2 edge_2_5#3 edge_110_5#0" color="yellow"/>
    </vehicle>
    <vehicle id="96" depart="28.26">