<?xml version="1.0" encoding="UTF-8"?>
<!-- generated on 2021-02-03 21:50:17.567187 by routeSampler.py UNKNOWN
  options: -r TrainingGym/Scenarios/VitalTri/VitalTriPM/VitalTriPM.rou.xml -t TrainingGym/Scenarios/VitalTri/VitalTriPM/VitalTriPM.turn.xml -o TrainingGym/Scenarios/VitalTri/VitalTriPM/VitalTriPM_Optimized.rou.xml <doubleminus>optimize full <doubleminus>write-flows probability
-->
<routes xmlns:xsi="http://www.w3.org/2001/XMLSchema-instance" xsi:noNamespaceSchemaLocation="http://sumo.dlr.de/xsd/routes_file.xsd">
<!-- begin="0.0" end="3600.0" -->
    <flow id="689" begin="0.00" end="3524.63" probability="0.007092939080075817">
        <route edges="edge_9_3#5 edge_3_4#0 edge_3_4#1 edge_3_4#2 edge_3_4#3 edge_3_4#4 edge_4_1#0 edge_4_1#1 edge_4_1#2 ramp_1_NE edge_1_101#1 edge_1_101#2 edge_1_101#3 edge_1_101#4 edge_1_101#5"/>
    </flow>
    <flow id="549" begin="0.29" end="3525.22" probability="0.010496673069963098">
        <route edges="edge_4_3#2 edge_3_9#0 edge_3_9#1 edge_3_9#2 edge_3_9#3 edge_3_9#4 ramp_9_NW"/>
    </flow>
    <flow id="34" begin="0.59" end="3596.76" probability="0.02085550552599288">
        <route edges="edge_101_1#5 edge_1_2#0 edge_1_2#1 41205287#1 41205375#2 32868406#6 edge_102_1#4 ramp_1_SW"/>
    </flow>
    <flow id="344" begin="0.88" end="3532.88" probability="0.02095134894834845">
        <route edges="edge_1_2#12 edge_2_5#0 edge_2_5#1 edge_2_5#2 edge_2_5#3 edge_5_6#0 edge_6_5#9 edge_110_5#0"/>
    </flow>
    <flow id="439" begin="1.18" end="3544.06" probability="0.006774139936845685">
        <route edges="edge_2_3#5 edge_3_4#0 edge_3_4#1 edge_3_4#2 edge_3_4#3 edge_3_4#4 edge_4_1#0 edge_4_1#1 edge_4_1#2 ramp_1_NE edge_1_101#1 edge_1_101#2 edge_1_101#3 edge_1_101#4 edge_1_101#5"/>
    </flow>
    <flow id="60" begin="1.47" end="3429.83" probability="0.008750536711034883">
        <route edges="edge_101_1#5 edge_1_4#0 edge_1_4#1 edge_1_4#2 edge_1_4#3 -32868409#2 -32868409#1 edge_2_1#7 edge_2_1#8 edge_2_1#9 ramp_1_SE"/>
    </flow>
    <flow id="33" begin="1.77" end="3597.64" probability="0.03281534850717795">
        <route edges="edge_101_1#5 edge_1_2#0 edge_1_2#1 41205287#1 41205375#2 32868406#6 32868406#9 gneE79"/>
    </flow>
    <flow id="300" begin="2.06" end="3437.19" probability="0.004366643812135808">
        <route edges="edge_109_6#3 edge_6_5#0 edge_6_5#1 edge_6_5#2 edge_6_5#3 edge_6_5#4 edge_5_6#3 edge_5_6#4 edge_6_104#0 edge_6_104#1"/>
    </flow>
    <flow id="687" begin="2.36" end="3288.52" probability="0.007607656931254944">
        <route edges="edge_9_3#5 edge_3_4#0 edge_3_4#1 edge_3_4#2 edge_3_4#3 edge_3_4#4 edge_4_1#0 edge_4_1#1 edge_4_1#2 ramp_1_NE edge_1_101#1 edge_1_101#2 edge_1_101#3 edge_1_101#4 -41208868#6 -41208868#3 41208868#3 edge_1_102#3 -41212224#2 -41205375#8 -41208868#2 41208868#2 41205375#8 41205375#9 -32868405#0 32868405#0 -41205375#9 41212224#2 edge_1_102#4"/>
    </flow>
    <flow id="754" begin="2.65" end="3509.91" probability="0.01482638014493988">
        <route edges="edge_9_8#4 edge_8_106#0 edge_8_106#1 edge_8_106#2 edge_8_106#3 -139283399 edge_106_8#8 edge_8_106#4 edge_8_106#5 edge_8_106#6 edge_106_8#6 -139283171#7 -139283171#6 139284058#5 139284058#6 139284058#7 139284058#8 edge_105_8#7 edge_105_8#8 edge_105_8#9 edge_8_7#0 edge_8_7#1 edge_8_7#2 edge_8_7#3 edge_7_6#0 edge_7_6#1 edge_7_6#2 289432764"/>
    </flow>
    <flow id="287" begin="3.24" end="3479.59" probability="0.019560749774164644">
        <route edges="edge_108_4#6 edge_4_1#0 edge_1_4#3 edge_4_108#0 edge_4_108#1 155378620#1 -155378620#1 -155378620#0 155378620#0 edge_4_108#2 edge_4_108#3 edge_4_108#4 edge_4_108#5 edge_108_4#1 edge_108_4#2 edge_108_4#3 edge_108_4#4 edge_108_4#5"/>
    </flow>
    <flow id="541" begin="3.53" end="3589.11" probability="0.03012069956482506">
        <route edges="edge_4_1#3 edge_1_2#0 edge_1_2#1 edge_1_2#2 edge_1_2#3 41205377 -41205377 edge_1_2#4 edge_1_2#5 edge_2_1#5 edge_2_1#6 edge_2_1#7 edge_2_1#8 41205287#1 -41205375#1 41205375#1 -41205287#1"/>
    </flow>
    <flow id="144" begin="3.83" end="2996.76" probability="0.01403305134762952">
        <route edges="edge_103_2#4 ramp_2_SW edge_2_5#1 -130655020#7 -130655020#6 -130655057#5 130655214#4 130655325#0 130655020#7 edge_2_5#2 edge_2_5#3 edge_110_5#0"/>
    </flow>
    <flow id="426" begin="4.12" end="3590.58" probability="0.32985196738357536">
        <route edges="edge_2_3#5 edge_3_107#0 edge_3_107#1 edge_3_107#2"/>
    </flow>
    <flow id="297" begin="4.42" end="3388.03" probability="0.004433133211520109">
        <route edges="edge_109_6#3 edge_6_5#0 edge_6_5#1 edge_6_5#2 edge_6_5#3 edge_6_5#4 -130655214#5 -130655278 130655278 130655214#5 edge_5_6#3 edge_5_6#4 edge_6_104#0 edge_6_104#1"/>
    </flow>
    <flow id="24" begin="4.71" end="3580.27" probability="0.03300178399890255">
        <route edges="edge_101_1#5 edge_1_2#0 edge_1_2#1 41205287#1 41205287#2 -gneE66 32868406#2 41208590#1 41205375#5 -41208868#2 -41208868#1 -41209072#3 41209072#3 -41208868#0 100317222#11 -32868405#3 -32868405#2 -32868405#0 32868405#0 32868405#1 41212177#0 -41212177#0 32868405#3 -100317222#12 41208868#0 41208868#1 -41212173#1 41212224#1 41205375#9 -41205375#9 41212224#2 41212224#5 -41212224#5 edge_102_1#1 41208868#6 edge_1_101#5"/>
    </flow>
    <flow id="446" begin="5.00" end="3598.82" probability="0.23596078752628558">
        <route edges="edge_3_2#5 edge_2_103#0 edge_2_103#1 edge_2_103#2 edge_2_103#3 edge_2_103#4"/>
    </flow>
    <flow id="719" begin="5.59" end="3591.17" probability="0.07976407477351821">
        <route edges="edge_9_8#4 edge_8_105#0 edge_8_105#1 139283095#1 139284206#1 139284206#2 -139283275#3 -139283275#0 -139283277#1 139283277#1 139283277#2 139283275#2 139283275#5 139283275#6 -139283304#2 139283304#2 -139283275#6 -139283275#5 139284206#4 139284206#5 139284206#7 139284206#8 -139284206#8 -139284206#7 139283287#0 139283286#1 -139283286#2 edge_8_105#6 edge_8_105#7 139284193#2 139284193#4 139283305#3 139283305#4 -139283288#0 -139283305#3 -139284193#4 139284206#10 139284206#11 -139284206#11 -139284206#10 -139284193#2 edge_8_105#8 edge_8_105#9 edge_8_105#10"/>
    </flow>
    <flow id="330" begin="5.89" end="3559.08" probability="0.020826359543734886">
        <route edges="edge_1_2#12 edge_2_5#0 edge_2_5#1 -130655020#7 -130655325#1 130655325#0 130655020#7 edge_2_5#2 edge_2_5#3 edge_110_5#0"/>
    </flow>
    <flow id="535" begin="6.18" end="3533.76" probability="0.017575808156679674">
        <route edges="edge_4_1#3 edge_1_102#0 edge_1_102#1 edge_1_102#2 edge_1_102#3 41212224#5 -41212224#5 edge_1_102#4"/>
    </flow>
    <flow id="395" begin="6.48" end="3597.35" probability="0.03341805361974296">
        <route edges="edge_2_1#10 edge_1_101#0 edge_1_101#1 edge_1_101#2 edge_1_101#3 -32868406#9 edge_1_102#2 edge_1_102#3 edge_1_102#4"/>
    </flow>
    <flow id="734" begin="6.77" end="3594.41" probability="0.07971825592209734">
        <route edges="edge_9_8#4 edge_8_105#0 edge_8_105#1 edge_8_105#2 edge_8_105#3 139283275#2 139284206#4 139284206#5 139283287#0 edge_8_105#6 edge_8_105#7 edge_8_105#8 edge_8_105#9 edge_8_105#10"/>
    </flow>
    <flow id="718" begin="7.07" end="3598.53" probability="0.005290324343525489">
        <route edges="edge_9_8#4 edge_8_105#0 edge_8_105#1 139283095#1 139284206#1 -139284206#1 139283095#3 139283304#1 139283304#2 -139283275#6 -139283275#5 -139284206#2 139284206#2 139284206#4 -139284206#4 139283275#5 139283275#6 -139283304#2 -139283304#1 139283094#0 -139283094#0 -139283095#3 -139283095#2 edge_105_8#7 edge_105_8#8 edge_105_8#9 edge_8_9#0 edge_8_9#1 edge_8_9#2 edge_8_9#3 289430973#0"/>
    </flow>
    <flow id="703" begin="7.36" end="3532.58" probability="0.005106063136796454">
        <route edges="edge_9_8#4 edge_8_105#0 edge_8_105#1 -139284058#9 -139284054#4 -139284054#3 -139284054#2 -139284054#1 139284054#1 139284054#2 139283277#2 edge_8_105#4 edge_8_105#5 edge_105_8#3 edge_105_8#4 -139283275#0 139284054#3 139284054#4 139284058#8 139283095#1 139283095#3 139283094#0 139283094#1 -139283275#6 -139283275#5 -139284206#2 139284206#2 139284206#4 139284206#5 139283287#0 edge_8_105#6 edge_8_105#7 edge_8_105#8 edge_8_105#9 edge_105_8#1 139284193#2 139284193#4 -139283305#1 -139283305#0 139283305#0 139283305#1 139284193#6 139284193#7 -139284193#8 -139284193#6 139283305#3 139283305#4 -139283288#0 -139283305#3 -139284193#4 -139284206#8 -139284206#7 -139284206#5 -139284206#4 -139283275#3 edge_105_8#5 edge_105_8#6 edge_105_8#7 edge_105_8#8 edge_105_8#9 edge_8_9#0 edge_8_9#1 edge_8_9#2 edge_8_9#3 edge_8_9#4 edge_8_9#5 edge_9_3#0 edge_9_3#1 edge_9_3#2 edge_9_3#3 edge_9_3#4 ramp_3_SE edge_3_107#1 edge_3_107#2"/>
    </flow>
    <flow id="22" begin="7.95" end="3586.16" probability="0.020960177719269626">
        <route edges="edge_101_1#5 edge_1_2#0 edge_1_2#1 41205287#1 41205287#2 -41205287#3 41205375#2 -32868406#5 32868406#5 32868406#6 edge_102_1#4 ramp_1_SW"/>
    </flow>
    <flow id="154" begin="8.24" end="3586.75" probability="0.011736733854381055">
        <route edges="edge_103_2#4 ramp_2_SW edge_2_5#1 -130655020#7 130655020#7 edge_2_5#2 edge_2_5#3 edge_110_5#0"/>
    </flow>
    <flow id="199" begin="8.54" end="3476.35" probability="0.011823018366018763">
        <route edges="edge_104_6#1 edge_6_5#0 edge_6_5#1 edge_6_5#2 edge_6_5#3 edge_6_5#4 edge_6_5#5 edge_6_5#6 edge_5_6#2 -130655214#5 -130655278 130655057#1 130655214#4 130655325#0 -130655325#1 -130655214#4 -130655214#3 -130655214#2 -130655171#1 130655171#1 130655171#2 130655171#3 130655020#2 130655020#5 130655020#6 130655020#7 edge_2_5#2 edge_2_5#3 edge_5_6#0 edge_6_5#9 edge_110_5#0"/>
    </flow>
    <flow id="12" begin="8.83" end="3560.84" probability="0.03322061058157244">
        <route edges="edge_101_1#5 edge_1_2#0 edge_1_2#1 41205287#1 -41205287#1 edge_1_2#2 edge_1_2#3 41205377 -41205375#0 41205375#0 41205375#1 41205375#2 41205375#4 -41205375#4 32868406#6 32868406#9 gneE79"/>
    </flow>
    <flow id="716" begin="9.13" end="3342.69" probability="0.0056996084665430925">
        <route edges="edge_9_8#4 edge_8_105#0 edge_8_105#1 139283095#1 -139283095#2 edge_8_105#2 edge_8_105#3 -139283275#0 -139284054#2 -139284054#1 -139283286#4 -139283286#3 -139283286#2 -139283287#1 139284206#7 -139284206#7 -139283288#0 -139283305#3 -139283305#1 139283305#1 139284193#6 139284193#7 -139284193#8 -139284193#6 139283305#3 139283305#4 139283287#0 edge_105_8#3 edge_105_8#4 edge_105_8#5 edge_105_8#6 edge_105_8#7 edge_105_8#8 edge_105_8#9 edge_8_9#0 edge_8_9#1 edge_8_9#2 edge_8_9#3 289430973#0"/>
    </flow>
    <flow id="401" begin="9.72" end="3512.27" probability="0.034260738001177175">
        <route edges="edge_2_1#10 edge_1_101#0 edge_1_101#1 edge_1_101#2 edge_1_101#3 edge_1_101#4 edge_1_101#5"/>
    </flow>
    <flow id="399" begin="10.01" end="3405.69" probability="0.035338997745795464">
        <route edges="edge_2_1#10 edge_1_101#0 edge_1_101#1 edge_1_101#2 edge_1_101#3 edge_1_101#4 -41208868#6 edge_102_1#2 edge_102_1#3 edge_1_102#2 -41208868#3 41205375#8 41205375#9 32868405#1 32868405#3 -32868405#3 41212177#0 41212224#0 -41212224#0 -41212177#0 -32868405#2 -41205375#9 -41212224#1 41212173#0 41208868#2 41208868#3 edge_1_102#3 41212224#5 -41212224#5 -41212224#2 41212224#2 edge_102_1#1 41208868#6 edge_1_101#5"/>
    </flow>
    <flow id="205" begin="10.60" end="3595.88" probability="0.011993485520337363">
        <route edges="edge_104_6#1 edge_6_5#0 edge_6_5#1 edge_6_5#2 edge_6_5#3 edge_6_5#4 edge_6_5#5 edge_6_5#6 edge_6_5#8 edge_5_6#1 edge_5_6#2 -130655214#5 130655325#0 -130655020#6 130655020#6 -130655325#1 130655214#5 edge_5_6#3 edge_5_6#4 edge_6_104#0 edge_6_104#1"/>
    </flow>
    <flow id="342" begin="10.89" end="3564.08" probability="0.021952108708261097">
        <route edges="edge_1_2#12 edge_2_5#0 edge_2_5#1 edge_2_5#2 edge_2_5#3 edge_5_6#0 edge_5_6#1 edge_5_6#2 edge_5_6#3 edge_5_6#4 edge_6_104#0 edge_6_104#1"/>
    </flow>
    <flow id="566" begin="11.19" end="3596.47" probability="0.09343761975146551">
        <route edges="edge_5_2#5 edge_2_103#0 edge_2_103#1 edge_2_103#2 edge_2_103#3 edge_2_103#4"/>
    </flow>
    <flow id="458" begin="11.48" end="3596.17" probability="0.049934570740254654">
        <route edges="edge_3_4#4 edge_4_1#0 edge_1_4#3 edge_4_3#0 edge_3_4#3"/>
    </flow>
    <flow id="415" begin="12.07" end="3571.44" probability="0.005899917287014132">
        <route edges="edge_2_1#10 edge_1_102#0 edge_1_102#1 edge_1_102#2 -41208868#3 -41208868#2 41208868#2 41208868#3 41208868#6 edge_1_101#5"/>
    </flow>
    <flow id="185" begin="12.37" end="3568.50" probability="0.012091784640008976">
        <route edges="edge_104_6#1 edge_6_5#0 edge_6_5#1 edge_6_5#2 edge_6_5#3 edge_6_5#4 -130655214#5 -130655278 130655057#1 -130655214#3 -130655214#2 130655171#2 -130655297 -130655195#0 -130655214#0 130655214#0 130655195#0 130655297 -130655171#2 130655214#2 130655139 130655020#5 130655020#6 -130655325#1 130655214#5 edge_6_5#5 edge_6_5#6 edge_5_6#2 edge_5_6#3 edge_5_6#4 edge_6_104#0 edge_6_104#1"/>
    </flow>
    <flow id="207" begin="12.66" end="3509.03" probability="0.011726451105871926">
        <route edges="edge_104_6#1 edge_6_5#0 edge_6_5#1 edge_6_5#2 edge_6_5#3 edge_6_5#4 edge_6_5#5 edge_6_5#6 edge_6_5#8 edge_6_5#9 edge_110_5#0"/>
    </flow>
    <flow id="396" begin="12.95" end="3588.52" probability="0.03356113627007039">
        <route edges="edge_2_1#10 edge_1_101#0 edge_1_101#1 edge_1_101#2 edge_1_101#3 edge_1_101#4 -41208868#6 -41208868#3 41205375#8 -41205375#8 41208868#3 41208868#6 edge_1_101#5"/>
    </flow>
    <flow id="322" begin="13.84" end="3570.85" probability="0.02080395078077606">
        <route edges="edge_1_2#12 edge_2_5#0 edge_2_5#1 -130655020#7 -130655325#1 -130655214#4 -130655214#3 130655139 -130655141 -130655214#2 130655171#2 130655171#3 -130655020#1 -130655195#1 -130655195#0 130655214#1 130655214#2 130655214#3 130655057#3 -130655020#5 130655020#5 -130655057#5 130655214#4 -130655278 130655057#1 -130655057#2 130655278 130655325#0 -130655020#6 130655020#6 130655020#7 edge_2_5#2 edge_2_5#3 edge_110_5#0"/>
    </flow>
    <flow id="329" begin="14.43" end="3445.73" probability="0.021566137566137823">
        <route edges="edge_1_2#12 edge_2_5#0 edge_2_5#1 -130655020#7 -130655325#1 130655325#0 -130655020#6 -130655057#5 130655214#4 130655214#5 edge_6_5#5 edge_6_5#6 edge_5_6#2 -130655214#5 -130655214#4 130655057#3 130655020#6 130655020#7 edge_2_5#2 edge_2_5#3 edge_110_5#0"/>
    </flow>
    <flow id="548" begin="15.01" end="3597.94" probability="0.05079649411120302">
        <route edges="edge_4_3#2 edge_3_107#0 edge_3_107#1 edge_3_107#2"/>
    </flow>
    <flow id="308" begin="15.31" end="3103.93" probability="0.00971308740825481">
        <route edges="edge_1_2#12 edge_2_3#0 edge_2_3#1 edge_2_3#2 edge_2_3#3 edge_2_3#4 ramp_3_SW edge_3_9#1 edge_3_9#2 edge_3_9#3 edge_3_9#4 ramp_9_NW"/>
    </flow>
    <flow id="333" begin="15.60" end="3588.81" probability="0.02182911757435966">
        <route edges="edge_1_2#12 edge_2_5#0 edge_2_5#1 -130655020#7 130655020#7 edge_2_5#2 edge_2_5#3 edge_5_6#0 edge_5_6#1 edge_5_6#2 edge_5_6#3 edge_5_6#4 edge_6_104#0 edge_6_104#1"/>
    </flow>
    <flow id="31" begin="15.90" end="3550.83" probability="0.03338108325698938">
        <route edges="edge_101_1#5 edge_1_2#0 edge_1_2#1 41205287#1 41205375#2 -32868406#5 41208590#1 41205375#5 41208868#3 edge_102_1#2 edge_102_1#3 32868406#9 gneE79"/>
    </flow>
    <flow id="620" begin="16.49" end="3593.52" probability="0.06849245541838217">
        <route edges="edge_7_6#6 edge_6_104#0 edge_6_104#1"/>
    </flow>
    <flow id="257" begin="16.78" end="2966.44" probability="0.0010170675716139456">
        <route edges="edge_107_3#2 ramp_3_NE edge_3_4#1 edge_3_4#2 edge_3_4#3 edge_3_4#4 edge_4_108#0 edge_4_108#1 edge_4_108#2 edge_4_108#3 edge_4_108#4 edge_108_4#2 edge_108_4#3 edge_108_4#4 edge_108_4#5 edge_108_4#6 edge_4_3#0 41205403#1 41205403#2 edge_2_1#5 edge_2_1#6 edge_2_1#7 edge_2_1#8 edge_2_1#9 ramp_1_SE edge_1_4#1 edge_1_4#2 edge_1_4#3 -32868409#2 -32868409#1 edge_1_2#4 edge_1_2#5 edge_1_2#6 edge_1_2#7 edge_1_2#8 edge_1_2#9 edge_1_2#10 edge_1_2#11 ramp_2_NW edge_2_103#1 edge_2_103#2 edge_2_103#3 edge_2_103#4"/>
    </flow>
    <flow id="320" begin="17.08" end="3594.11" probability="0.020687517146776656">
        <route edges="edge_1_2#12 edge_2_5#0 edge_2_5#1 -130655020#7 -130655325#1 -130655214#4 -130655214#3 -130655214#2 130655171#2 -130655297 130655297 130655171#3 130655020#2 -130655141 130655214#3 130655057#3 130655020#6 130655020#7 edge_2_5#2 edge_2_5#3 edge_5_6#0 edge_6_5#9 edge_110_5#0"/>
    </flow>
    <flow id="455" begin="17.37" end="3589.70" probability="0.050107411680677484">
        <route edges="edge_3_4#4 edge_4_1#0 edge_1_4#3 edge_4_3#0 41205403#1 41205403#2 edge_1_2#6 edge_1_2#7 edge_2_1#2 edge_2_1#3 edge_2_1#4 -41205403#2 -41205403#1 edge_3_4#3"/>
    </flow>
    <flow id="189" begin="17.66" end="3568.79" probability="0.011545625379981347">
        <route edges="edge_104_6#1 edge_6_5#0 edge_6_5#1 edge_6_5#2 edge_6_5#3 edge_6_5#4 -130655214#5 130655325#0 -130655325#1 -130655278 130655057#1 130655057#3 -130655020#5 -130655020#4 130655020#2 130655020#5 130655020#6 -130655020#6 -130655057#5 -130655057#2 130655278 130655214#5 edge_6_5#5 edge_6_5#6 edge_6_5#8 edge_6_5#9 edge_110_5#0"/>
    </flow>
    <flow id="163" begin="17.96" end="3479.88" probability="0.012709697536638755">
        <route edges="edge_103_2#4 ramp_2_SW edge_2_5#1 edge_2_5#2 edge_2_5#3 edge_5_6#0 edge_5_6#1 edge_5_6#2 edge_5_6#3 edge_5_6#4 edge_6_104#0 edge_6_104#1"/>
    </flow>
    <flow id="143" begin="18.25" end="3521.39" probability="0.011989242793512205">
        <route edges="edge_103_2#4 ramp_2_SW edge_2_5#1 -130655020#7 -130655020#6 -130655057#5 130655214#4 -130655278 130655278 -130655214#4 -130655214#3 130655139 -130655141 130655214#3 130655057#3 -130655020#5 -130655020#4 -130655171#3 -130655171#2 130655214#2 -130655214#2 130655171#2 130655171#3 130655020#2 130655020#5 130655020#6 130655020#7 edge_2_5#2 edge_2_5#3 edge_110_5#0"/>
    </flow>
    <flow id="123" begin="18.55" end="3599.71" probability="0.185973364024994">
        <route edges="edge_102_1#6 edge_1_4#0 edge_1_4#1 edge_1_4#2 edge_1_4#3 edge_4_3#0 41205403#1 41205403#2 edge_2_1#5 edge_2_1#6 41205377 -41205375#0 41205233#3 41205233#5 41205233#6 100317222#11 -32868405#3 41212177#0 -41212177#0 -32868405#2 32868405#1 32868405#3 -100317222#12 41208868#0 41208868#1 -41208868#1 -41209072#3 41209074#0 41209072#0 -41209072#2 41209074#1 32868406#2 32868406#5 41205375#4 -41208590#1 41208590#1 41205375#5 41205375#8 -41212224#1 41212224#1 -41205375#8 -41205375#7 -41205375#4 -32868406#5 -32868406#4 -gneE65 41205274#0 -41205274#1 -gneE66 -41209074#1 -41209074#0 41209072#3 -41208868#0 -100317222#10 -41205233#5 -41205233#4 41205375#0 41205375#1 41205375#2 32868406#6 32868406#9 gneE79"/>
    </flow>
    <flow id="400" begin="21.79" end="3592.64" probability="0.033605408525023084">
        <route edges="edge_2_1#10 edge_1_101#0 edge_1_101#1 edge_1_101#2 edge_1_101#3 edge_1_101#4 -41208868#6 edge_1_102#3 edge_1_102#4"/>
    </flow>
    <flow id="451" begin="22.08" end="3543.18" probability="0.015620122630992385">
        <route edges="edge_3_2#5 edge_2_5#0 edge_2_5#1 edge_2_5#2 edge_2_5#3 edge_110_5#0"/>
    </flow>
    <flow id="317" begin="22.37" end="3499.61" probability="0.02128129145147205">
        <route edges="edge_1_2#12 edge_2_5#0 edge_2_5#1 -130655020#7 -130655020#6 130655020#6 130655020#7 edge_2_5#2 edge_2_5#3 edge_110_5#0"/>
    </flow>
    <flow id="440" begin="23.26" end="3585.87" probability="0.006736633336088009">
        <route edges="edge_2_3#5 edge_3_4#0 edge_3_4#1 edge_3_4#2 edge_3_4#3 edge_3_4#4 edge_4_1#0 edge_4_1#1 edge_4_1#2 ramp_1_NE edge_1_101#1 edge_1_101#2 edge_1_101#3 gneE79"/>
    </flow>
    <flow id="301" begin="23.55" end="3451.91" probability="0.004375268355517443">
        <route edges="edge_109_6#3 edge_6_5#0 edge_6_5#1 edge_6_5#2 edge_6_5#3 edge_6_5#4 edge_6_5#5 edge_6_5#6 edge_5_6#2 edge_5_6#3 edge_5_6#4 edge_6_104#0 edge_6_104#1"/>
    </flow>
    <flow id="635" begin="23.85" end="3481.35" probability="0.006362965485921967">
        <route edges="edge_7_8#6 edge_8_106#0 139400810 -139400810 edge_106_8#12 edge_106_8#13 edge_106_8#14 edge_8_9#0 edge_8_9#1 edge_8_9#2 edge_8_9#3 289430973#0"/>
    </flow>
    <flow id="27" begin="25.02" end="3550.54" probability="0.03347028531663228">
        <route edges="edge_101_1#5 edge_1_2#0 edge_1_2#1 41205287#1 41205287#2 41205274#0 -41205233#5 41205233#5 41205233#6 -100317222#10 -41205274#1 -41205287#3 41205375#2 41205375#4 -41205375#4 32868406#6 32868406#9 gneE79"/>
    </flow>
    <flow id="556" begin="25.32" end="3560.55" probability="0.0059402065289807515">
        <route edges="edge_5_2#5 edge_2_1#0 edge_2_1#1 edge_2_1#2 edge_2_1#3 41205233#1 41205233#2 -41205233#2 -41205233#1 edge_1_2#7 edge_1_2#8 edge_1_2#9 edge_1_2#10 edge_1_2#11 ramp_2_NW edge_2_103#1 edge_2_103#2 edge_2_103#3 edge_2_103#4"/>
    </flow>
    <flow id="637" begin="27.38" end="3333.56" probability="0.009981300089047317">
        <route edges="edge_7_8#6 edge_8_106#0 139400810 -139400810 edge_8_106#1 edge_8_106#2 edge_106_8#10 -139283299#2 139283299#2 edge_106_8#11 edge_106_8#12 edge_106_8#13 edge_106_8#14 edge_8_7#0 edge_8_7#1 edge_8_7#2 edge_8_7#3 edge_7_6#0 edge_7_6#1 edge_7_6#2 289432764"/>
    </flow>
    <flow id="43" begin="27.67" end="3576.74" probability="0.03324816811834687">
        <route edges="edge_101_1#5 edge_1_2#0 edge_1_2#1 edge_1_2#2 edge_1_2#3 41205377 -41205375#0 -41205233#2 -41205233#1 edge_1_2#7 edge_2_1#2 edge_2_1#3 41205233#1 41205233#2 41205375#0 41205375#1 41205287#2 41205274#0 -41205274#1 -gneE66 32868406#2 41208590#1 -41208590#1 -32868406#4 -gneE65 -41205287#3 -41205287#1"/>
    </flow>
    <flow id="157" begin="27.97" end="3598.23" probability="0.011763832769852538">
        <route edges="edge_103_2#4 ramp_2_SW edge_2_5#1 edge_2_5#2 edge_2_5#3 edge_110_5#0"/>
    </flow>
    <flow id="621" begin="28.26" end="3565.85" probability="0.015830004438526602">
        <route edges="edge_7_6#6 edge_6_109#0 edge_6_109#1 130655057#0 130655278 130655325#0 130655020#7 edge_2_5#2 edge_2_5#3 edge_5_2#0 edge_5_2#1 edge_5_2#2 edge_5_2#3 edge_5_2#4 ramp_2_SE edge_2_3#1 edge_2_3#2 edge_2_3#3 edge_2_3#4 ramp_3_SW edge_3_9#1 edge_3_9#2 edge_3_9#3 edge_3_9#4 ramp_9_NW"/>
    </flow>
    <flow id="323" begin="28.56" end="3585.57" probability="0.02192848866081801">
        <route edges="edge_1_2#12 edge_2_5#0 edge_2_5#1 -130655020#7 -130655325#1 -130655214#4 130655214#4 130655214#5 edge_5_6#3 edge_5_6#4 edge_6_104#0 edge_6_104#1"/>
    </flow>
    <flow id="523" begin="29.74" end="3468.99" probability="0.015119557153455641">
        <route edges="edge_4_1#3 edge_1_102#0 edge_1_102#1 -32868406#6 41205375#4 -41208590#1 -32868406#4 32868406#2 32868406#5 -41205375#3 -41205287#1 edge_1_2#2 edge_1_2#3 edge_1_2#4 edge_1_2#5 edge_2_1#5 edge_2_1#6 edge_2_1#7 edge_2_1#8 41205287#1 41205287#2 41205274#0 41205233#6 100317222#11 -32868405#3 32868405#3 -100317222#12 -100317222#10 -41205233#5 -41205233#4 41205375#0 41205375#1 -41205375#1 -41205375#0 -41205233#2 -41205233#1 edge_1_2#7 edge_2_1#2 edge_2_1#3 edge_2_1#4 edge_1_2#6 41205233#1 41205233#2 41205233#3 41205233#5 -41205274#1 -gneE66 -41209074#1 -41209074#0 -41209072#2 41209074#1 -gneE65 -41205287#3 41205375#2 32868406#6 edge_1_102#2 -41208868#3 41205375#8 -41212224#1 41212173#0 -41208868#1 -41209072#3 41209074#0 41209072#0 41209072#3 41208868#1 -41212173#1 -41212224#0 41212224#0 41212224#1 41205375#9 32868405#1 41212177#0 -41212177#0 -32868405#2 -32868405#0 32868405#0 -41205375#9 -41205375#8 -41205375#7 41205375#5 -41208868#2 41208868#2 41208868#3 edge_102_1#2 edge_102_1#3 edge_102_1#4 ramp_1_SW edge_1_2#1"/>
    </flow>
    <flow id="433" begin="31.80" end="3457.80" probability="0.003210735871215415">
        <route edges="edge_2_3#5 edge_3_4#0 edge_3_4#1 edge_3_4#2 41205403#1 41205403#2 edge_2_1#5 edge_2_1#6 edge_1_2#4 edge_1_2#5 edge_1_2#6 edge_1_2#7 edge_1_2#8 edge_1_2#9 edge_1_2#10 edge_1_2#11 ramp_2_NW edge_2_103#1 edge_2_103#2 edge_2_103#3 edge_2_103#4"/>
    </flow>
    <flow id="402" begin="32.68" end="3595.00" probability="0.03368595041322355">
        <route edges="edge_2_1#10 edge_1_101#0 edge_1_101#1 edge_1_101#2 edge_1_101#3 gneE79"/>
    </flow>
    <flow id="201" begin="33.27" end="3350.93" probability="0.012358091519507943">
        <route edges="edge_104_6#1 edge_6_5#0 edge_6_5#1 edge_6_5#2 edge_6_5#3 edge_6_5#4 edge_6_5#5 edge_6_5#6 edge_5_6#2 -130655214#5 130655325#0 -130655020#6 130655020#6 130655020#7 edge_2_5#2 edge_2_5#3 edge_5_6#0 edge_5_6#1"/>
    </flow>
    <flow id="450" begin="33.56" end="3593.23" probability="0.015450886334188152">
        <route edges="edge_3_2#5 edge_2_5#0 edge_2_5#1 -130655020#7 130655020#7 edge_2_5#2 edge_2_5#3 edge_110_5#0"/>
    </flow>
    <flow id="393" begin="34.74" end="3589.40" probability="0.022786980288222902">
        <route edges="edge_2_1#10 edge_1_101#0 edge_1_101#1 edge_1_101#2 edge_1_101#3 -32868406#9 edge_102_1#4 ramp_1_SW edge_1_2#1 edge_1_2#2 edge_1_2#3 41205377 41205375#1 41205375#2 -41205375#3 -41205287#1"/>
    </flow>
    <flow id="568" begin="35.03" end="3275.86" probability="0.006479832848837288">
        <route edges="edge_5_6#4 edge_6_104#0 edge_6_104#1"/>
    </flow>
    <flow id="711" begin="35.62" end="3483.71" probability="0.005510302823315185">
        <route edges="edge_9_8#4 edge_8_105#0 edge_8_105#1 -139284058#9 139284054#5 -139284054#5 -139284054#4 -139284054#3 -139283277#1 -139283277#0 -139283249#0 139284058#6 139284058#7 139284058#8 edge_8_105#2 edge_8_105#3 edge_105_8#5 edge_105_8#6 139283095#1 139284206#1 -139284206#1 139283095#3 139283304#1 -139283304#1 139283094#0 139283094#1 -139283304#2 139283304#2 -139283275#6 139283275#6 139283275#8 -139283094#0 -139283095#3 -139283095#2 edge_105_8#7 edge_105_8#8 edge_105_8#9 edge_8_9#0 edge_8_9#1 edge_8_9#2 edge_8_9#3 289430973#0"/>
    </flow>
    <flow id="551" begin="36.80" end="3477.82" probability="0.006102840520191724">
        <route edges="edge_5_2#5 edge_2_1#0 edge_2_1#1 edge_1_2#8 edge_1_2#9 edge_1_2#10 edge_1_2#11 ramp_2_NW edge_2_103#1 edge_2_103#2 edge_2_103#3 edge_2_103#4"/>
    </flow>
    <flow id="677" begin="37.68" end="3577.63" probability="0.002824905744067455">
        <route edges="edge_9_3#5 edge_3_4#0 edge_3_4#1 edge_3_4#2 41205403#1 41205403#2 edge_1_2#6 edge_1_2#7 edge_1_2#8 edge_1_2#9 edge_1_2#10 edge_1_2#11 ramp_2_NW edge_2_103#1 edge_2_103#2 edge_2_103#3 edge_2_103#4"/>
    </flow>
    <flow id="251" begin="37.98" end="3588.22" probability="0.06196754844238127">
        <route edges="edge_107_3#2 ramp_3_NE edge_3_4#1 edge_3_4#2 41205403#1 41205403#2 edge_2_1#5 edge_2_1#6 edge_2_1#7 edge_2_1#8 41205287#1 41205375#2 41205375#4 41205375#5 41205375#8 41205375#9 -32868405#0 32868405#0 32868405#1 -32868405#2 -41205375#9 -41212224#1 41212173#0 -41208868#1 -41208868#0 100317222#11 -32868405#3 41212177#0 41212224#0 41212224#1 41212224#2 edge_102_1#1 41208868#6 -41208868#6 edge_1_102#3 edge_1_102#4"/>
    </flow>
    <flow id="720" begin="38.27" end="3516.09" probability="0.005463190270605896">
        <route edges="edge_9_8#4 edge_8_105#0 edge_8_105#1 139283095#1 139284206#1 139284206#2 -139283275#3 -139283275#0 139284054#3 139284054#4 139284054#5 139284054#6 -139284054#6 -139284054#5 -139284054#4 -139284054#3 -139284054#2 -139284054#1 139283286#5 -139283249#2 -139283249#0 139284058#6 139284058#7 -139284058#7 -139284058#6 -139284058#5 -139283171#4 -139283171#2 -139283171#1 139283171#1 139283171#2 -139283276#1 -139283276#0 -139283130#5 -139283130#4 139284058#3 -139284058#3 -139284058#1 139284058#0 -139283130#2 139283130#2 139283130#4 139283130#5 139283276#0 139283276#1 139283171#4 139284058#5 139283249#0 139283249#2 139283249#5 139283249#6 139283249#8 139283249#9 -139283286#3 -139283286#2 edge_105_8#3 edge_105_8#4 edge_105_8#5 edge_105_8#6 edge_8_105#2 edge_8_105#3 edge_8_105#4 edge_8_105#5 -139283287#1 139283287#0 139283286#1 139283286#3 139283286#4 139284054#1 139284054#2 -139283277#1 -139283277#0 139283277#0 139283277#1 139283277#2 139283275#2 -139284206#2 -139284206#1 -139283095#2 -139284058#9 139284058#8 edge_105_8#7 edge_105_8#8 edge_105_8#9 edge_8_9#0 edge_8_9#1 edge_8_9#2 edge_8_9#3 289430973#0"/>
    </flow>
    <flow id="152" begin="38.86" end="3274.68" probability="0.013597792132957432">
        <route edges="edge_103_2#4 ramp_2_SW edge_2_5#1 -130655020#7 -130655325#1 130655214#5 edge_5_6#3 edge_5_6#4 edge_6_104#0 edge_6_104#1"/>
    </flow>
    <flow id="175" begin="40.92" end="3475.17" probability="0.00553250464352057">
        <route edges="edge_103_2#5 edge_2_1#0 edge_2_1#1 edge_2_1#2 edge_2_1#3 41205233#1 41205233#2 41205375#0 -41205375#0 41205233#3 41205233#5 41205233#6 -100317222#10 -41205233#5 -41205233#4 -41205233#2 -41205233#1 edge_2_1#4 edge_1_2#6 edge_1_2#7 edge_1_2#8 edge_1_2#9 edge_1_2#10 edge_1_2#11 ramp_2_NW edge_2_103#1 edge_2_103#2 edge_2_103#3 edge_2_103#4"/>
    </flow>
    <flow id="673" begin="41.22" end="3591.46" probability="0.007041766868452417">
        <route edges="edge_9_3#5 edge_3_4#0 edge_3_4#1 edge_3_4#2 41205403#1 41205403#2 edge_1_2#6 41205233#1 41205233#2 41205233#3 -41205233#4 -41205233#2 -41205233#1 edge_1_2#7 edge_2_1#2 edge_2_1#3 edge_2_1#4 -41205403#2 -41205403#1 edge_3_4#3 edge_3_4#4 edge_4_1#0 edge_4_1#1 edge_4_1#2 ramp_1_NE edge_1_101#1 edge_1_101#2 edge_1_101#3 gneE79"/>
    </flow>
    <flow id="328" begin="41.81" end="3589.99" probability="0.02198307334882204">
        <route edges="edge_1_2#12 edge_2_5#0 edge_2_5#1 -130655020#7 -130655325#1 130655214#5 edge_6_5#5 edge_6_5#6 edge_6_5#8 edge_5_6#1 edge_5_6#2 edge_5_6#3 edge_5_6#4 edge_6_104#0 edge_6_104#1"/>
    </flow>
    <flow id="37" begin="42.39" end="3597.06" probability="0.03319584782728768">
        <route edges="edge_101_1#5 edge_1_2#0 edge_1_2#1 41205287#1 41205375#2 41205375#4 41205375#5 -41208868#2 41208868#2 -41205375#7 -41208590#1 32868406#5 32868406#6 32868406#9 gneE79"/>
    </flow>