<?xml version="1.0" encoding="UTF-8"?>

<!-- generated on Wed 27 Jan 2021 12:08:07 PM by Eclipse SUMO netedit Version 1.7.0
<configuration xmlns:xsi="http://www.w3.org/2001/XMLSchema-instance" xsi:noNamespaceSchemaLocation="http://sumo.dlr.de/xsd/netconvertConfiguration.xsd">

    <input>
        <sumo-net-file value="/home/eric/Github/G15_Capstone/TrainingGym/Scenarios/PoundSign/PoundSign.net.xml"/>
    </input>

    <output>
        <output-file value="/home/eric/Github/G15_Capstone/TrainingGym/Scenarios/PoundSign/PoundSign.net.xml"/>
    </output>

    <processing>
        <geometry.min-radius.fix.railways value="false"/>
        <geometry.max-grade.fix value="false"/>
        <offset.disable-normalization value="true"/>
        <lefthand value="false"/>
    </processing>

    <junctions>
        <no-turnarounds value="true"/>
        <junctions.corner-detail value="5"/>
        <junctions.limit-turn-speed value="5.5"/>
        <rectangular-lane-cut value="false"/>
    </junctions>

    <pedestrian>
        <walkingareas value="false"/>
    </pedestrian>

    <report>
        <aggregate-warnings value="5"/>
    </report>

</configuration>
-->

<net version="1.6" junctionCornerDetail="5" limitTurnSpeed="5.50" xmlns:xsi="http://www.w3.org/2001/XMLSchema-instance" xsi:noNamespaceSchemaLocation="http://sumo.dlr.de/xsd/net_file.xsd">

    <location netOffset="0.00,0.00" convBoundary="-100.00,-200.00,400.00,300.00" origBoundary="-10000000000.00,-10000000000.00,10000000000.00,10000000000.00" projParameter="!"/>

    <edge id=":ne_0" function="internal">
        <lane id=":ne_0_0" index="0" speed="6.51" length="9.03" shape="198.40,107.20 198.05,104.75 197.00,103.00 195.25,101.95 192.80,101.60"/>
    </edge>
    <edge id=":ne_1" function="internal">
        <lane id=":ne_1_0" index="0" speed="13.89" length="14.40" shape="198.40,107.20 198.40,92.80"/>
    </edge>
    <edge id=":ne_2" function="internal">
        <lane id=":ne_2_0" index="0" speed="8.00" length="5.93" shape="198.40,107.20 198.95,103.35 200.00,101.60"/>
    </edge>
    <edge id=":ne_12" function="internal">
        <lane id=":ne_12_0" index="0" speed="8.00" length="8.26" shape="200.00,101.60 200.60,100.60 203.35,98.95 207.20,98.40"/>
    </edge>
    <edge id=":ne_3" function="internal">
        <lane id=":ne_3_0" index="0" speed="6.51" length="9.03" shape="207.20,101.60 204.75,101.95 203.00,103.00 201.95,104.75 201.60,107.20"/>
    </edge>
    <edge id=":ne_4" function="internal">
        <lane id=":ne_4_0" index="0" speed="13.89" length="14.40" shape="207.20,101.60 192.80,101.60"/>
    </edge>
    <edge id=":ne_5" function="internal">
        <lane id=":ne_5_0" index="0" speed="8.00" length="5.93" shape="207.20,101.60 203.35,101.05 201.60,100.00"/>
    </edge>
    <edge id=":ne_13" function="internal">
        <lane id=":ne_13_0" index="0" speed="8.00" length="8.26" shape="201.60,100.00 200.60,99.40 198.95,96.65 198.40,92.80"/>
    </edge>
    <edge id=":ne_6" function="internal">
        <lane id=":ne_6_0" index="0" speed="6.51" length="9.03" shape="201.60,92.80 201.95,95.25 203.00,97.00 204.75,98.05 207.20,98.40"/>
    </edge>
    <edge id=":ne_7" function="internal">
        <lane id=":ne_7_0" index="0" speed="13.89" length="14.40" shape="201.60,92.80 201.60,107.20"/>
    </edge>
    <edge id=":ne_8" function="internal">
        <lane id=":ne_8_0" index="0" speed="8.00" length="5.93" shape="201.60,92.80 201.05,96.65 200.00,98.40"/>
    </edge>
    <edge id=":ne_14" function="internal">
        <lane id=":ne_14_0" index="0" speed="8.00" length="8.26" shape="200.00,98.40 199.40,99.40 196.65,101.05 192.80,101.60"/>
    </edge>
    <edge id=":ne_9" function="internal">
        <lane id=":ne_9_0" index="0" speed="6.51" length="9.03" shape="192.80,98.40 195.25,98.05 197.00,97.00 198.05,95.25 198.40,92.80"/>
    </edge>
    <edge id=":ne_10" function="internal">
        <lane id=":ne_10_0" index="0" speed="13.89" length="14.40" shape="192.80,98.40 207.20,98.40"/>
    </edge>
    <edge id=":ne_11" function="internal">
        <lane id=":ne_11_0" index="0" speed="8.00" length="5.93" shape="192.80,98.40 196.65,98.95 198.40,100.00"/>
    </edge>
    <edge id=":ne_15" function="internal">
        <lane id=":ne_15_0" index="0" speed="8.00" length="8.26" shape="198.40,100.00 199.40,100.60 201.05,103.35 201.60,107.20"/>
    </edge>
    <edge id=":nw_0" function="internal">
        <lane id=":nw_0_0" index="0" speed="6.51" length="9.03" shape="98.40,107.20 98.05,104.75 97.00,103.00 95.25,101.95 92.80,101.60"/>
    </edge>
    <edge id=":nw_1" function="internal">
        <lane id=":nw_1_0" index="0" speed="13.89" length="14.40" shape="98.40,107.20 98.40,92.80"/>
    </edge>
    <edge id=":nw_2" function="internal">
        <lane id=":nw_2_0" index="0" speed="8.00" length="5.93" shape="98.40,107.20 98.95,103.35 100.00,101.60"/>
    </edge>
    <edge id=":nw_12" function="internal">
        <lane id=":nw_12_0" index="0" speed="8.00" length="8.26" shape="100.00,101.60 100.60,100.60 103.35,98.95 107.20,98.40"/>
    </edge>
    <edge id=":nw_3" function="internal">
        <lane id=":nw_3_0" index="0" speed="6.51" length="9.03" shape="107.20,101.60 104.75,101.95 103.00,103.00 101.95,104.75 101.60,107.20"/>
    </edge>
    <edge id=":nw_4" function="internal">
        <lane id=":nw_4_0" index="0" speed="13.89" length="14.40" shape="107.20,101.60 92.80,101.60"/>
    </edge>
    <edge id=":nw_5" function="internal">
        <lane id=":nw_5_0" index="0" speed="8.00" length="5.93" shape="107.20,101.60 103.35,101.05 101.60,100.00"/>
    </edge>
    <edge id=":nw_13" function="internal">
        <lane id=":nw_13_0" index="0" speed="8.00" length="8.26" shape="101.60,100.00 100.60,99.40 98.95,96.65 98.40,92.80"/>
    </edge>
    <edge id=":nw_6" function="internal">
        <lane id=":nw_6_0" index="0" speed="6.51" length="9.03" shape="101.60,92.80 101.95,95.25 103.00,97.00 104.75,98.05 107.20,98.40"/>
    </edge>
    <edge id=":nw_7" function="internal">
        <lane id=":nw_7_0" index="0" speed="13.89" length="14.40" shape="101.60,92.80 101.60,107.20"/>
    </edge>
    <edge id=":nw_8" function="internal">
        <lane id=":nw_8_0" index="0" speed="8.00" length="5.93" shape="101.60,92.80 101.05,96.65 100.00,98.40"/>
    </edge>
    <edge id=":nw_14" function="internal">
        <lane id=":nw_14_0" index="0" speed="8.00" length="8.26" shape="100.00,98.40 99.40,99.40 96.65,101.05 92.80,101.60"/>
    </edge>
    <edge id=":nw_9" function="internal">
        <lane id=":nw_9_0" index="0" speed="6.51" length="9.03" shape="92.80,98.40 95.25,98.05 97.00,97.00 98.05,95.25 98.40,92.80"/>
    </edge>
    <edge id=":nw_10" function="internal">
        <lane id=":nw_10_0" index="0" speed="13.89" length="14.40" shape="92.80,98.40 107.20,98.40"/>
    </edge>
    <edge id=":nw_11" function="internal">
        <lane id=":nw_11_0" index="0" speed="8.00" length="5.93" shape="92.80,98.40 96.65,98.95 98.40,100.00"/>
    </edge>
    <edge id=":nw_15" function="internal">
        <lane id=":nw_15_0" index="0" speed="8.00" length="8.26" shape="98.40,100.00 99.40,100.60 101.05,103.35 101.60,107.20"/>
    </edge>
    <edge id=":se_0" function="internal">
        <lane id=":se_0_0" index="0" speed="6.51" length="9.03" shape="198.40,7.20 198.05,4.75 197.00,3.00 195.25,1.95 192.80,1.60"/>
    </edge>
    <edge id=":se_1" function="internal">
        <lane id=":se_1_0" index="0" speed="13.89" length="14.40" shape="198.40,7.20 198.40,-7.20"/>
    </edge>
    <edge id=":se_2" function="internal">
        <lane id=":se_2_0" index="0" speed="8.00" length="5.93" shape="198.40,7.20 198.95,3.35 200.00,1.60"/>
    </edge>
    <edge id=":se_12" function="internal">
        <lane id=":se_12_0" index="0" speed="8.00" length="8.26" shape="200.00,1.60 200.60,0.60 203.35,-1.05 207.20,-1.60"/>
    </edge>
    <edge id=":se_3" function="internal">
        <lane id=":se_3_0" index="0" speed="6.51" length="9.03" shape="207.20,1.60 204.75,1.95 203.00,3.00 201.95,4.75 201.60,7.20"/>
    </edge>
    <edge id=":se_4" function="internal">
        <lane id=":se_4_0" index="0" speed="13.89" length="14.40" shape="207.20,1.60 192.80,1.60"/>
    </edge>
    <edge id=":se_5" function="internal">
        <lane id=":se_5_0" index="0" speed="8.00" length="5.93" shape="207.20,1.60 203.35,1.05 201.60,0.00"/>
    </edge>
    <edge id=":se_13" function="internal">
        <lane id=":se_13_0" index="0" speed="8.00" length="8.26" shape="201.60,0.00 200.60,-0.60 198.95,-3.35 198.40,-7.20"/>
    </edge>
    <edge id=":se_6" function="internal">
        <lane id=":se_6_0" index="0" speed="6.51" length="9.03" shape="201.60,-7.20 201.95,-4.75 203.00,-3.00 204.75,-1.95 207.20,-1.60"/>
    </edge>
    <edge id=":se_7" function="internal">
        <lane id=":se_7_0" index="0" speed="13.89" length="14.40" shape="201.60,-7.20 201.60,7.20"/>
    </edge>
    <edge id=":se_8" function="internal">
        <lane id=":se_8_0" index="0" speed="8.00" length="5.93" shape="201.60,-7.20 201.05,-3.35 200.00,-1.60"/>
    </edge>
    <edge id=":se_14" function="internal">
        <lane id=":se_14_0" index="0" speed="8.00" length="8.26" shape="200.00,-1.60 199.40,-0.60 196.65,1.05 192.80,1.60"/>
    </edge>
    <edge id=":se_9" function="internal">
        <lane id=":se_9_0" index="0" speed="6.51" length="9.03" shape="192.80,-1.60 195.25,-1.95 197.00,-3.00 198.05,-4.75 198.40,-7.20"/>
    </edge>
    <edge id=":se_10" function="internal">
        <lane id=":se_10_0" index="0" speed="13.89" length="14.40" shape="192.80,-1.60 207.20,-1.60"/>
    </edge>
    <edge id=":se_11" function="internal">
        <lane id=":se_11_0" index="0" speed="8.00" length="5.93" shape="192.80,-1.60 196.65,-1.05 198.40,0.00"/>
    </edge>
    <edge id=":se_15" function="internal">
        <lane id=":se_15_0" index="0" speed="8.00" length="8.26" shape="198.40,0.00 199.40,0.60 201.05,3.35 201.60,7.20"/>
    </edge>
    <edge id=":sw_0" function="internal">
        <lane id=":sw_0_0" index="0" speed="6.51" length="9.03" shape="98.40,7.20 98.05,4.75 97.00,3.00 95.25,1.95 92.80,1.60"/>
    </edge>
    <edge id=":sw_1" function="internal">
        <lane id=":sw_1_0" index="0" speed="13.89" length="14.40" shape="98.40,7.20 98.40,-7.20"/>
    </edge>
    <edge id=":sw_2" function="internal">
        <lane id=":sw_2_0" index="0" speed="8.00" length="5.93" shape="98.40,7.20 98.95,3.35 100.00,1.60"/>
    </edge>
    <edge id=":sw_12" function="internal">
        <lane id=":sw_12_0" index="0" speed="8.00" length="8.26" shape="100.00,1.60 100.60,0.60 103.35,-1.05 107.20,-1.60"/>
    </edge>
    <edge id=":sw_3" function="internal">
        <lane id=":sw_3_0" index="0" speed="6.51" length="9.03" shape="107.20,1.60 104.75,1.95 103.00,3.00 101.95,4.75 101.60,7.20"/>
    </edge>
    <edge id=":sw_4" function="internal">
        <lane id=":sw_4_0" index="0" speed="13.89" length="14.40" shape="107.20,1.60 92.80,1.60"/>
    </edge>
    <edge id=":sw_5" function="internal">
        <lane id=":sw_5_0" index="0" speed="8.00" length="5.93" shape="107.20,1.60 103.35,1.05 101.60,-0.00"/>
    </edge>
    <edge id=":sw_13" function="internal">
        <lane id=":sw_13_0" index="0" speed="8.00" length="8.26" shape="101.60,-0.00 100.60,-0.60 98.95,-3.35 98.40,-7.20"/>
    </edge>
    <edge id=":sw_6" function="internal">
        <lane id=":sw_6_0" index="0" speed="6.51" length="9.03" shape="101.60,-7.20 101.95,-4.75 103.00,-3.00 104.75,-1.95 107.20,-1.60"/>
    </edge>
    <edge id=":sw_7" function="internal">
        <lane id=":sw_7_0" index="0" speed="13.89" length="14.40" shape="101.60,-7.20 101.60,7.20"/>
    </edge>
    <edge id=":sw_8" function="internal">
        <lane id=":sw_8_0" index="0" speed="8.00" length="5.93" shape="101.60,-7.20 101.05,-3.35 100.00,-1.60"/>
    </edge>
    <edge id=":sw_14" function="internal">
        <lane id=":sw_14_0" index="0" speed="8.00" length="8.26" shape="100.00,-1.60 99.40,-0.60 96.65,1.05 92.80,1.60"/>
    </edge>
    <edge id=":sw_9" function="internal">
        <lane id=":sw_9_0" index="0" speed="6.51" length="9.03" shape="92.80,-1.60 95.25,-1.95 97.00,-3.00 98.05,-4.75 98.40,-7.20"/>
    </edge>
    <edge id=":sw_10" function="internal">
        <lane id=":sw_10_0" index="0" speed="13.89" length="14.40" shape="92.80,-1.60 107.20,-1.60"/>
    </edge>
    <edge id=":sw_11" function="internal">
        <lane id=":sw_11_0" index="0" speed="8.00" length="5.93" shape="92.80,-1.60 96.65,-1.05 98.40,0.00"/>
    </edge>
    <edge id=":sw_15" function="internal">
        <lane id=":sw_15_0" index="0" speed="8.00" length="8.26" shape="98.40,0.00 99.40,0.60 101.05,3.35 101.60,7.20"/>
    </edge>

    <edge id="gneE12" from="nw" to="sw" priority="-1">
        <lane id="gneE12_0" index="0" speed="13.89" length="85.60" shape="98.40,92.80 98.40,7.20"/>
    </edge>
    <edge id="gneE13" from="ne" to="nw" priority="-1">
        <lane id="gneE13_0" index="0" speed="13.89" length="85.60" shape="192.80,101.60 107.20,101.60"/>
    </edge>
    <edge id="gneE16" from="nw" to="ne" priority="-1">
        <lane id="gneE16_0" index="0" speed="13.89" length="85.60" shape="107.20,98.40 192.80,98.40"/>
    </edge>
    <edge id="gneE19" from="sw" to="nw" priority="-1">
        <lane id="gneE19_0" index="0" speed="13.89" length="85.60" shape="101.60,7.20 101.60,92.80"/>
    </edge>
    <edge id="gneE20" from="se" to="ne" priority="-1">
        <lane id="gneE20_0" index="0" speed="13.89" length="85.60" shape="201.60,7.20 201.60,92.80"/>
    </edge>
    <edge id="gneE21" from="se" to="sw" priority="-1">
        <lane id="gneE21_0" index="0" speed="13.89" length="85.60" shape="192.80,1.60 107.20,1.60"/>
    </edge>
    <edge id="gneE22" from="sw" to="se" priority="-1">
        <lane id="gneE22_0" index="0" speed="13.89" length="85.60" shape="107.20,-1.60 192.80,-1.60"/>
    </edge>
    <edge id="gneE23" from="ne" to="se" priority="-1">
        <lane id="gneE23_0" index="0" speed="13.89" length="85.60" shape="198.40,92.80 198.40,7.20"/>
    </edge>
    <edge id="gneE52" from="sw" to="gneJ32" priority="-1">
        <lane id="gneE52_0" index="0" speed="13.89" length="192.80" shape="92.80,1.60 -100.00,1.60"/>
    </edge>
    <edge id="gneE53" from="gneJ32" to="sw" priority="-1">
        <lane id="gneE53_0" index="0" speed="13.89" length="192.80" shape="-100.00,-1.60 92.80,-1.60"/>
    </edge>
    <edge id="gneE54" from="gneJ29" to="nw" priority="-1">
        <lane id="gneE54_0" index="0" speed="13.89" length="192.80" shape="98.40,300.00 98.40,107.20"/>
    </edge>
    <edge id="gneE55" from="nw" to="gneJ29" priority="-1">
        <lane id="gneE55_0" index="0" speed="13.89" length="192.80" shape="101.60,107.20 101.60,300.00"/>
    </edge>
    <edge id="gneE56" from="gneJ28" to="ne" priority="-1">
        <lane id="gneE56_0" index="0" speed="13.89" length="192.80" shape="198.40,300.00 198.40,107.20"/>
    </edge>
    <edge id="gneE57" from="ne" to="gneJ28" priority="-1">
        <lane id="gneE57_0" index="0" speed="13.89" length="192.80" shape="201.60,107.20 201.60,300.00"/>
    </edge>
    <edge id="gneE58" from="ne" to="gneJ27" priority="-1">
        <lane id="gneE58_0" index="0" speed="13.89" length="192.80" shape="207.20,98.40 400.00,98.40"/>
    </edge>
    <edge id="gneE59" from="gneJ27" to="ne" priority="-1">
        <lane id="gneE59_0" index="0" speed="13.89" length="192.80" shape="400.00,101.60 207.20,101.60"/>
    </edge>
    <edge id="gneE60" from="gneJ26" to="se" priority="-1">
        <lane id="gneE60_0" index="0" speed="13.89" length="192.80" shape="400.00,1.60 207.20,1.60"/>
    </edge>
    <edge id="gneE61" from="se" to="gneJ26" priority="-1">
        <lane id="gneE61_0" index="0" speed="13.89" length="192.80" shape="207.20,-1.60 400.00,-1.60"/>
    </edge>
    <edge id="gneE62" from="se" to="gneJ33" priority="-1">
        <lane id="gneE62_0" index="0" speed="13.89" length="192.80" shape="198.40,-7.20 198.40,-200.00"/>
    </edge>
    <edge id="gneE63" from="gneJ33" to="se" priority="-1">
        <lane id="gneE63_0" index="0" speed="13.89" length="192.80" shape="201.60,-200.00 201.60,-7.20"/>
    </edge>
    <edge id="gneE64" from="sw" to="gneJ34" priority="-1">
        <lane id="gneE64_0" index="0" speed="13.89" length="192.80" shape="98.40,-7.20 98.40,-200.00"/>
    </edge>
    <edge id="gneE65" from="gneJ34" to="sw" priority="-1">
        <lane id="gneE65_0" index="0" speed="13.89" length="192.80" shape="101.60,-200.00 101.60,-7.20"/>
    </edge>
    <edge id="gneE66" from="nw" to="gneJ35" priority="-1">
        <lane id="gneE66_0" index="0" speed="13.89" length="192.80" shape="92.80,101.60 -100.00,101.60"/>
    </edge>
    <edge id="gneE67" from="gneJ35" to="nw" priority="-1">
        <lane id="gneE67_0" index="0" speed="13.89" length="192.80" shape="-100.00,98.40 92.80,98.40"/>
    </edge>

    <tlLogic id="ne" type="static" programID="0" offset="0">
        <phase duration="42" state="GGgrrrGGgrrr"/>
        <phase duration="3"  state="yyyrrryyyrrr"/>
        <phase duration="2"  state="rrrrrrrrrrrr"/>
        <phase duration="42" state="rrrGGgrrrGGg"/>
        <phase duration="3"  state="rrryyyrrryyy"/>
        <phase duration="2"  state="rrrrrrrrrrrr"/>
    </tlLogic>
    <tlLogic id="nw" type="static" programID="0" offset="0">
        <phase duration="42" state="GGgrrrGGgrrr"/>
        <phase duration="3"  state="yyyrrryyyrrr"/>
        <phase duration="2"  state="rrrrrrrrrrrr"/>
        <phase duration="42" state="rrrGGgrrrGGg"/>
        <phase duration="3"  state="rrryyyrrryyy"/>
        <phase duration="2"  state="rrrrrrrrrrrr"/>
    </tlLogic>
    <tlLogic id="se" type="static" programID="0" offset="0">
        <phase duration="42" state="GGgrrrGGgrrr"/>
        <phase duration="3"  state="yyyrrryyyrrr"/>
        <phase duration="2"  state="rrrrrrrrrrrr"/>
        <phase duration="42" state="rrrGGgrrrGGg"/>
        <phase duration="3"  state="rrryyyrrryyy"/>
        <phase duration="2"  state="rrrrrrrrrrrr"/>
    </tlLogic>
    <tlLogic id="sw" type="static" programID="0" offset="0">
        <phase duration="42" state="GGgrrrGGgrrr"/>
        <phase duration="3"  state="yyyrrryyyrrr"/>
        <phase duration="2"  state="rrrrrrrrrrrr"/>
        <phase duration="42" state="rrrGGgrrrGGg"/>
        <phase duration="3"  state="rrryyyrrryyy"/>
        <phase duration="2"  state="rrrrrrrrrrrr"/>
    </tlLogic>

    <junction id="gneJ26" type="dead_end" x="400.00" y="0.00" incLanes="gneE61_0" intLanes="" shape="400.00,0.00 400.00,-3.20 400.00,0.00"/>
    <junction id="gneJ27" type="dead_end" x="400.00" y="100.00" incLanes="gneE58_0" intLanes="" shape="400.00,100.00 400.00,96.80 400.00,100.00"/>
    <junction id="gneJ28" type="dead_end" x="200.00" y="300.00" incLanes="gneE57_0" intLanes="" shape="200.00,300.00 203.20,300.00 200.00,300.00"/>
    <junction id="gneJ29" type="dead_end" x="100.00" y="300.00" incLanes="gneE55_0" intLanes="" shape="100.00,300.00 103.20,300.00 100.00,300.00"/>
    <junction id="gneJ32" type="dead_end" x="-100.00" y="0.00" incLanes="gneE52_0" intLanes="" shape="-100.00,0.00 -100.00,3.20 -100.00,0.00"/>
    <junction id="gneJ33" type="dead_end" x="200.00" y="-200.00" incLanes="gneE62_0" intLanes="" shape="200.00,-200.00 196.80,-200.00 200.00,-200.00"/>
    <junction id="gneJ34" type="dead_end" x="100.00" y="-200.00" incLanes="gneE64_0" intLanes="" shape="100.00,-200.00 96.80,-200.00 100.00,-200.00"/>
    <junction id="gneJ35" type="dead_end" x="-100.00" y="100.00" incLanes="gneE66_0" intLanes="" shape="-100.00,100.00 -100.00,103.20 -100.00,100.00"/>
    <junction id="ne" type="traffic_light" x="200.00" y="100.00" incLanes="gneE56_0 gneE59_0 gneE20_0 gneE16_0" intLanes=":ne_0_0 :ne_1_0 :ne_12_0 :ne_3_0 :ne_4_0 :ne_13_0 :ne_6_0 :ne_7_0 :ne_14_0 :ne_9_0 :ne_10_0 :ne_15_0" shape="196.80,107.20 203.20,107.20 203.64,104.98 204.20,104.20 204.98,103.64 205.98,103.31 207.20,103.20 207.20,96.80 204.98,96.36 204.20,95.80 203.64,95.02 203.31,94.02 203.20,92.80 196.80,92.80 196.36,95.02 195.80,95.80 195.02,96.36 194.02,96.69 192.80,96.80 192.80,103.20 195.02,103.64 195.80,104.20 196.36,104.98 196.69,105.98">
        <request index="0"  response="000000000000" foes="000100010000" cont="0"/>
        <request index="1"  response="100000100000" foes="111100110000" cont="0"/>
        <request index="2"  response="100011100000" foes="110011110000" cont="1"/>
        <request index="3"  response="000010000000" foes="100010000000" cont="0"/>
        <request index="4"  response="000110000111" foes="100110000111" cont="0"/>
        <request index="5"  response="011110000110" foes="011110000110" cont="1"/>
        <request index="6"  response="000000000000" foes="010000000100" cont="0"/>
        <request index="7"  response="100000100000" foes="110000111100" cont="0"/>
        <request index="8"  response="100000100011" foes="110000110011" cont="1"/>
        <request index="9"  response="000000000010" foes="000000100010" cont="0"/>
        <request index="10" response="000111000110" foes="000111100110" cont="0"/>
        <request index="11" response="000110011110" foes="000110011110" cont="1"/>
    </junction>
    <junction id="nw" type="traffic_light" x="100.00" y="100.00" incLanes="gneE54_0 gneE13_0 gneE19_0 gneE67_0" intLanes=":nw_0_0 :nw_1_0 :nw_12_0 :nw_3_0 :nw_4_0 :nw_13_0 :nw_6_0 :nw_7_0 :nw_14_0 :nw_9_0 :nw_10_0 :nw_15_0" shape="96.80,107.20 103.20,107.20 103.64,104.98 104.20,104.20 104.98,103.64 105.98,103.31 107.20,103.20 107.20,96.80 104.98,96.36 104.20,95.80 103.64,95.02 103.31,94.02 103.20,92.80 96.80,92.80 96.36,95.02 95.80,95.80 95.02,96.36 94.02,96.69 92.80,96.80 92.80,103.20 95.02,103.64 95.80,104.20 96.36,104.98 96.69,105.98">
        <request index="0"  response="000000000000" foes="000100010000" cont="0"/>
        <request index="1"  response="100000100000" foes="111100110000" cont="0"/>
        <request index="2"  response="100011100000" foes="110011110000" cont="1"/>
        <request index="3"  response="000010000000" foes="100010000000" cont="0"/>
        <request index="4"  response="000110000111" foes="100110000111" cont="0"/>
        <request index="5"  response="011110000110" foes="011110000110" cont="1"/>
        <request index="6"  response="000000000000" foes="010000000100" cont="0"/>
        <request index="7"  response="100000100000" foes="110000111100" cont="0"/>
        <request index="8"  response="100000100011" foes="110000110011" cont="1"/>
        <request index="9"  response="000000000010" foes="000000100010" cont="0"/>
        <request index="10" response="000111000110" foes="000111100110" cont="0"/>
        <request index="11" response="000110011110" foes="000110011110" cont="1"/>
    </junction>
    <junction id="se" type="traffic_light" x="200.00" y="0.00" incLanes="gneE23_0 gneE60_0 gneE63_0 gneE22_0" intLanes=":se_0_0 :se_1_0 :se_12_0 :se_3_0 :se_4_0 :se_13_0 :se_6_0 :se_7_0 :se_14_0 :se_9_0 :se_10_0 :se_15_0" shape="196.80,7.20 203.20,7.20 203.64,4.98 204.20,4.20 204.98,3.64 205.98,3.31 207.20,3.20 207.20,-3.20 204.98,-3.64 204.20,-4.20 203.64,-4.98 203.31,-5.98 203.20,-7.20 196.80,-7.20 196.36,-4.98 195.80,-4.20 195.02,-3.64 194.02,-3.31 192.80,-3.20 192.80,3.20 195.02,3.64 195.80,4.20 196.36,4.98 196.69,5.98">
        <request index="0"  response="000000000000" foes="000100010000" cont="0"/>
        <request index="1"  response="100000100000" foes="111100110000" cont="0"/>
        <request index="2"  response="100011100000" foes="110011110000" cont="1"/>
        <request index="3"  response="000010000000" foes="100010000000" cont="0"/>
        <request index="4"  response="000110000111" foes="100110000111" cont="0"/>
        <request index="5"  response="011110000110" foes="011110000110" cont="1"/>
        <request index="6"  response="000000000000" foes="010000000100" cont="0"/>
        <request index="7"  response="100000100000" foes="110000111100" cont="0"/>
        <request index="8"  response="100000100011" foes="110000110011" cont="1"/>
        <request index="9"  response="000000000010" foes="000000100010" cont="0"/>
        <request index="10" response="000111000110" foes="000111100110" cont="0"/>
        <request index="11" response="000110011110" foes="000110011110" cont="1"/>
    </junction>
    <junction id="sw" type="traffic_light" x="100.00" y="0.00" incLanes="gneE12_0 gneE21_0 gneE65_0 gneE53_0" intLanes=":sw_0_0 :sw_1_0 :sw_12_0 :sw_3_0 :sw_4_0 :sw_13_0 :sw_6_0 :sw_7_0 :sw_14_0 :sw_9_0 :sw_10_0 :sw_15_0" shape="96.80,7.20 103.20,7.20 103.64,4.98 104.20,4.20 104.98,3.64 105.98,3.31 107.20,3.20 107.20,-3.20 104.98,-3.64 104.20,-4.20 103.64,-4.98 103.31,-5.98 103.20,-7.20 96.80,-7.20 96.36,-4.98 95.80,-4.20 95.02,-3.64 94.02,-3.31 92.80,-3.20 92.80,3.20 95.02,3.64 95.80,4.20 96.36,4.98 96.69,5.98">
        <request index="0"  response="000000000000" foes="000100010000" cont="0"/>
        <request index="1"  response="100000100000" foes="111100110000" cont="0"/>
        <request index="2"  response="100011100000" foes="110011110000" cont="1"/>
        <request index="3"  response="000010000000" foes="100010000000" cont="0"/>
        <request index="4"  response="000110000111" foes="100110000111" cont="0"/>
        <request index="5"  response="011110000110" foes="011110000110" cont="1"/>
        <request index="6"  response="000000000000" foes="010000000100" cont="0"/>
        <request index="7"  response="100000100000" foes="110000111100" cont="0"/>
        <request index="8"  response="100000100011" foes="110000110011" cont="1"/>
        <request index="9"  response="000000000010" foes="000000100010" cont="0"/>
        <request index="10" response="000111000110" foes="000111100110" cont="0"/>
        <request index="11" response="000110011110" foes="000110011110" cont="1"/>
    </junction>

    <junction id=":ne_12_0" type="internal" x="200.00" y="101.60" incLanes=":ne_2_0 gneE20_0" intLanes=":ne_4_0 :ne_5_0 :ne_6_0 :ne_7_0 :ne_10_0 :ne_11_0"/>
    <junction id=":ne_13_0" type="internal" x="201.60" y="100.00" incLanes=":ne_5_0 gneE16_0" intLanes=":ne_1_0 :ne_2_0 :ne_7_0 :ne_8_0 :ne_9_0 :ne_10_0"/>
    <junction id=":ne_14_0" type="internal" x="200.00" y="98.40" incLanes=":ne_8_0 gneE56_0" intLanes=":ne_0_0 :ne_1_0 :ne_4_0 :ne_5_0 :ne_10_0 :ne_11_0"/>
    <junction id=":ne_15_0" type="internal" x="198.40" y="100.00" incLanes=":ne_11_0 gneE59_0" intLanes=":ne_1_0 :ne_2_0 :ne_3_0 :ne_4_0 :ne_7_0 :ne_8_0"/>
    <junction id=":nw_12_0" type="internal" x="100.00" y="101.60" incLanes=":nw_2_0 gneE19_0" intLanes=":nw_4_0 :nw_5_0 :nw_6_0 :nw_7_0 :nw_10_0 :nw_11_0"/>
    <junction id=":nw_13_0" type="internal" x="101.60" y="100.00" incLanes=":nw_5_0 gneE67_0" intLanes=":nw_1_0 :nw_2_0 :nw_7_0 :nw_8_0 :nw_9_0 :nw_10_0"/>
    <junction id=":nw_14_0" type="internal" x="100.00" y="98.40" incLanes=":nw_8_0 gneE54_0" intLanes=":nw_0_0 :nw_1_0 :nw_4_0 :nw_5_0 :nw_10_0 :nw_11_0"/>
    <junction id=":nw_15_0" type="internal" x="98.40" y="100.00" incLanes=":nw_11_0 gneE13_0" intLanes=":nw_1_0 :nw_2_0 :nw_3_0 :nw_4_0 :nw_7_0 :nw_8_0"/>
    <junction id=":se_12_0" type="internal" x="200.00" y="1.60" incLanes=":se_2_0 gneE63_0" intLanes=":se_4_0 :se_5_0 :se_6_0 :se_7_0 :se_10_0 :se_11_0"/>
    <junction id=":se_13_0" type="internal" x="201.60" y="0.00" incLanes=":se_5_0 gneE22_0" intLanes=":se_1_0 :se_2_0 :se_7_0 :se_8_0 :se_9_0 :se_10_0"/>
    <junction id=":se_14_0" type="internal" x="200.00" y="-1.60" incLanes=":se_8_0 gneE23_0" intLanes=":se_0_0 :se_1_0 :se_4_0 :se_5_0 :se_10_0 :se_11_0"/>
    <junction id=":se_15_0" type="internal" x="198.40" y="0.00" incLanes=":se_11_0 gneE60_0" intLanes=":se_1_0 :se_2_0 :se_3_0 :se_4_0 :se_7_0 :se_8_0"/>
    <junction id=":sw_12_0" type="internal" x="100.00" y="1.60" incLanes=":sw_2_0 gneE65_0" intLanes=":sw_4_0 :sw_5_0 :sw_6_0 :sw_7_0 :sw_10_0 :sw_11_0"/>
    <junction id=":sw_13_0" type="internal" x="101.60" y="-0.00" incLanes=":sw_5_0 gneE53_0" intLanes=":sw_1_0 :sw_2_0 :sw_7_0 :sw_8_0 :sw_9_0 :sw_10_0"/>
    <junction id=":sw_14_0" type="internal" x="100.00" y="-1.60" incLanes=":sw_8_0 gneE12_0" intLanes=":sw_0_0 :sw_1_0 :sw_4_0 :sw_5_0 :sw_10_0 :sw_11_0"/>
    <junction id=":sw_15_0" type="internal" x="98.40" y="0.00" incLanes=":sw_11_0 gneE21_0" intLanes=":sw_1_0 :sw_2_0 :sw_3_0 :sw_4_0 :sw_7_0 :sw_8_0"/>

    <connection from="gneE12" to="gneE52" fromLane="0" toLane="0" via=":sw_0_0" tl="sw" linkIndex="0" dir="r" state="O"/>
    <connection from="gneE12" to="gneE64" fromLane="0" toLane="0" via=":sw_1_0" tl="sw" linkIndex="1" dir="s" state="O"/>
    <connection from="gneE12" to="gneE22" fromLane="0" toLane="0" via=":sw_2_0" tl="sw" linkIndex="2" dir="l" state="o"/>
    <connection from="gneE13" to="gneE55" fromLane="0" toLane="0" via=":nw_3_0" tl="nw" linkIndex="3" dir="r" state="o"/>
    <connection from="gneE13" to="gneE66" fromLane="0" toLane="0" via=":nw_4_0" tl="nw" linkIndex="4" dir="s" state="o"/>
    <connection from="gneE13" to="gneE12" fromLane="0" toLane="0" via=":nw_5_0" tl="nw" linkIndex="5" dir="l" state="o"/>
    <connection from="gneE16" to="gneE23" fromLane="0" toLane="0" via=":ne_9_0" tl="ne" linkIndex="9" dir="r" state="o"/>
    <connection from="gneE16" to="gneE58" fromLane="0" toLane="0" via=":ne_10_0" tl="ne" linkIndex="10" dir="s" state="o"/>
    <connection from="gneE16" to="gneE57" fromLane="0" toLane="0" via=":ne_11_0" tl="ne" linkIndex="11" dir="l" state="o"/>
    <connection from="gneE19" to="gneE16" fromLane="0" toLane="0" via=":nw_6_0" tl="nw" linkIndex="6" dir="r" state="O"/>
    <connection from="gneE19" to="gneE55" fromLane="0" toLane="0" via=":nw_7_0" tl="nw" linkIndex="7" dir="s" state="O"/>
    <connection from="gneE19" to="gneE66" fromLane="0" toLane="0" via=":nw_8_0" tl="nw" linkIndex="8" dir="l" state="o"/>
    <connection from="gneE20" to="gneE58" fromLane="0" toLane="0" via=":ne_6_0" tl="ne" linkIndex="6" dir="r" state="O"/>
    <connection from="gneE20" to="gneE57" fromLane="0" toLane="0" via=":ne_7_0" tl="ne" linkIndex="7" dir="s" state="O"/>