<?xml version="1.0" encoding="UTF-8"?>

<!-- generated on Wed 06 Jan 2021 10:22:23 AM by Eclipse SUMO netedit Version 1.7.0
<configuration xmlns:xsi="http://www.w3.org/2001/XMLSchema-instance" xsi:noNamespaceSchemaLocation="http://sumo.dlr.de/xsd/netconvertConfiguration.xsd">

    <input>
        <sumo-net-file value="/home/eric/Github/G15_Capstone/TrainingGym/Scenarios/PoundSign/PoundSign.net.xml"/>
    </input>

    <output>
        <output-file value="/home/eric/Github/G15_Capstone/TrainingGym/Scenarios/PoundSign/PoundSign.net.xml"/>
    </output>

    <processing>
        <geometry.min-radius.fix.railways value="false"/>
        <geometry.max-grade.fix value="false"/>
        <offset.disable-normalization value="true"/>
        <lefthand value="false"/>
    </processing>

    <junctions>
        <no-turnarounds value="true"/>
        <junctions.corner-detail value="5"/>
        <junctions.limit-turn-speed value="5.5"/>
        <rectangular-lane-cut value="false"/>
    </junctions>

    <pedestrian>
        <walkingareas value="false"/>
    </pedestrian>

    <netedit>
        <route-files value="/home/eric/Github/G15_Capstone/TrainingGym/Scenarios/PoundSign/PoundSign.rou.xml"/>
    </netedit>

    <report>
        <aggregate-warnings value="5"/>
    </report>

</configuration>
-->

<routes xmlns:xsi="http://www.w3.org/2001/XMLSchema-instance" xsi:noNamespaceSchemaLocation="http://sumo.dlr.de/xsd/routes_file.xsd">
    <flow id="flow_0" begin="0.00" from="gneE54" to="gneE64" end="150.00" probability="0.5"/>
    <flow id="flow_1" begin="0.00" from="gneE63" to="gneE57" end="150.00" probability="0.5"/>
    <flow id="flow_2" begin="200.00" from="gneE67" to="gneE58" end="350.00" probability="0.5"/>
    <flow id="flow_3" begin="200.00" from="gneE53" to="gneE61" end="350.00" probability="0.5"/>
</routes>
