<?xml version="1.0" encoding="UTF-8"?>

<!-- generated on 01/07/21 19:28:25 by Eclipse SUMO netedit Version 1.7.0
<configuration xmlns:xsi="http://www.w3.org/2001/XMLSchema-instance" xsi:noNamespaceSchemaLocation="http://sumo.dlr.de/xsd/netconvertConfiguration.xsd">

    <input>
        <sumo-net-file value="C:\Users\cau\Documents\GitHub\G15_Capstone\TrainingGym\Scenarios\VitalTriAM\VitalTriAM.net.xml"/>
    </input>

    <output>
        <output-file value="C:\Users\cau\Documents\GitHub\G15_Capstone\TrainingGym\Scenarios\VitalTriAM\VitalTriAM.net.xml"/>
        <output.street-names value="true"/>
    </output>

    <processing>
        <geometry.min-radius.fix.railways value="false"/>
        <geometry.max-grade.fix value="false"/>
        <offset.disable-normalization value="true"/>
        <lefthand value="false"/>
    </processing>

    <junctions>
        <no-turnarounds value="true"/>
        <junctions.corner-detail value="5"/>
        <junctions.limit-turn-speed value="5.5"/>
        <rectangular-lane-cut value="false"/>
    </junctions>

    <pedestrian>
        <walkingareas value="false"/>
    </pedestrian>

    <report>
        <aggregate-warnings value="5"/>
    </report>

</configuration>
-->

<net version="1.6" junctionCornerDetail="5" limitTurnSpeed="5.50" xmlns:xsi="http://www.w3.org/2001/XMLSchema-instance" xsi:noNamespaceSchemaLocation="http://sumo.dlr.de/xsd/net_file.xsd">

    <location netOffset="-633795.94,-5518778.91" convBoundary="129.19,1151.10,3794.18,4702.53" origBoundary="-97.148536,49.806113,-97.073019,49.959891" projParameter="+proj=utm +zone=14 +ellps=WGS84 +datum=WGS84 +units=m +no_defs"/>

    <type id="highway.bridleway" priority="1" numLanes="1" speed="2.78" allow="pedestrian" oneway="1" width="2.00"/>
    <type id="highway.bus_guideway" priority="1" numLanes="1" speed="27.78" allow="bus" oneway="1"/>
    <type id="highway.cycleway" priority="1" numLanes="1" speed="8.33" allow="bicycle" oneway="0" width="1.00"/>
    <type id="highway.footway" priority="1" numLanes="1" speed="2.78" allow="pedestrian" oneway="1" width="2.00"/>
    <type id="highway.ford" priority="1" numLanes="1" speed="2.78" allow="army" oneway="0"/>
    <type id="highway.living_street" priority="2" numLanes="1" speed="2.78" disallow="tram rail_urban rail rail_electric rail_fast ship" oneway="0"/>
    <type id="highway.motorway" priority="14" numLanes="2" speed="39.44" allow="private emergency authority army vip passenger hov taxi bus coach delivery truck trailer motorcycle evehicle custom1 custom2" oneway="1"/>
    <type id="highway.motorway_link" priority="9" numLanes="1" speed="22.22" allow="private emergency authority army vip passenger hov taxi bus coach delivery truck trailer motorcycle evehicle custom1 custom2" oneway="1"/>
    <type id="highway.path" priority="1" numLanes="1" speed="2.78" allow="pedestrian bicycle" oneway="1" width="2.00"/>
    <type id="highway.pedestrian" priority="1" numLanes="1" speed="2.78" allow="pedestrian" oneway="1" width="2.00"/>
    <type id="highway.primary" priority="12" numLanes="2" speed="27.78" disallow="tram rail_urban rail rail_electric rail_fast ship" oneway="0"/>
    <type id="highway.primary_link" priority="7" numLanes="1" speed="22.22" disallow="tram rail_urban rail rail_electric rail_fast ship" oneway="0"/>
    <type id="highway.raceway" priority="15" numLanes="2" speed="83.33" allow="vip" oneway="0"/>
    <type id="highway.residential" priority="3" numLanes="1" speed="13.89" disallow="tram rail_urban rail rail_electric rail_fast ship" oneway="0"/>
    <type id="highway.secondary" priority="11" numLanes="1" speed="27.78" disallow="tram rail_urban rail rail_electric rail_fast ship" oneway="0"/>
    <type id="highway.secondary_link" priority="6" numLanes="1" speed="22.22" disallow="tram rail_urban rail rail_electric rail_fast ship" oneway="0"/>
    <type id="highway.service" priority="1" numLanes="1" speed="5.56" allow="pedestrian delivery bicycle" oneway="0"/>
    <type id="highway.stairs" priority="1" numLanes="1" speed="1.39" allow="pedestrian" oneway="1" width="2.00"/>
    <type id="highway.step" priority="1" numLanes="1" speed="1.39" allow="pedestrian" oneway="1" width="2.00"/>
    <type id="highway.steps" priority="1" numLanes="1" speed="1.39" allow="pedestrian" oneway="1" width="2.00"/>
    <type id="highway.tertiary" priority="10" numLanes="1" speed="22.22" disallow="tram rail_urban rail rail_electric rail_fast ship" oneway="0"/>
    <type id="highway.tertiary_link" priority="5" numLanes="1" speed="22.22" disallow="tram rail_urban rail rail_electric rail_fast ship" oneway="0"/>
    <type id="highway.track" priority="1" numLanes="1" speed="5.56" allow="pedestrian motorcycle moped bicycle" oneway="0"/>
    <type id="highway.trunk" priority="13" numLanes="2" speed="27.78" disallow="pedestrian bicycle tram rail_urban rail rail_electric rail_fast ship" oneway="0"/>
    <type id="highway.trunk_link" priority="8" numLanes="1" speed="22.22" disallow="pedestrian bicycle tram rail_urban rail rail_electric rail_fast ship" oneway="0"/>
    <type id="highway.unclassified" priority="4" numLanes="1" speed="13.89" disallow="tram rail_urban rail rail_electric rail_fast ship" oneway="0"/>
    <type id="highway.unsurfaced" priority="1" numLanes="1" speed="8.33" disallow="tram rail_urban rail rail_electric rail_fast ship" oneway="0"/>
    <type id="railway.highspeed" priority="21" numLanes="1" speed="69.44" allow="rail_fast" oneway="1"/>
    <type id="railway.light_rail" priority="19" numLanes="1" speed="27.78" allow="rail_urban" oneway="1"/>
    <type id="railway.preserved" priority="16" numLanes="1" speed="27.78" allow="rail" oneway="1"/>
    <type id="railway.rail" priority="20" numLanes="1" speed="44.44" allow="rail" oneway="1"/>
    <type id="railway.subway" priority="18" numLanes="1" speed="27.78" allow="rail_urban" oneway="1"/>
    <type id="railway.tram" priority="17" numLanes="1" speed="13.89" allow="tram" oneway="1"/>

    <edge id=":1438345089_0" function="internal">
        <lane id=":1438345089_0_0" index="0" disallow="tram rail_urban rail rail_electric rail_fast ship" speed="3.65" length="4.67" shape="1291.00,1323.98 1291.87,1322.83 1292.69,1322.47 1293.46,1322.92 1294.20,1324.16"/>
    </edge>
    <edge id=":1438345229_0" function="internal">
        <lane id=":1438345229_0_0" index="0" disallow="tram rail_urban rail rail_electric rail_fast ship" speed="3.65" length="4.67" shape="224.99,1591.38 224.29,1590.12 224.30,1589.23 225.02,1588.70 226.45,1588.54"/>
    </edge>
    <edge id=":1438345273_0" function="internal">
        <lane id=":1438345273_0_0" index="0" disallow="tram rail_urban rail rail_electric rail_fast ship" speed="3.65" length="4.67" shape="191.70,1676.08 191.04,1674.80 191.08,1673.90 191.82,1673.40 193.26,1673.28"/>
    </edge>
    <edge id=":1438345302_0" function="internal">
        <lane id=":1438345302_0_0" index="0" disallow="tram rail_urban rail rail_electric rail_fast ship" speed="6.54" length="9.06" shape="797.10,1751.21 794.63,1751.38 792.80,1752.30 791.61,1753.97 791.05,1756.40"/>
    </edge>
    <edge id=":1438345302_1" function="internal">
        <lane id=":1438345302_1_0" index="0" disallow="tram rail_urban rail rail_electric rail_fast ship" speed="13.89" length="14.39" shape="797.10,1751.21 782.76,1750.07"/>
    </edge>
    <edge id=":1438345302_2" function="internal">
        <lane id=":1438345302_2_0" index="0" disallow="tram rail_urban rail rail_electric rail_fast ship" speed="3.65" length="2.34" shape="797.10,1751.21 795.96,1750.32 795.62,1749.50"/>
    </edge>
    <edge id=":1438345302_9" function="internal">
        <lane id=":1438345302_9_0" index="0" disallow="tram rail_urban rail rail_electric rail_fast ship" speed="3.65" length="2.34" shape="795.62,1749.50 796.08,1748.73 797.34,1748.02"/>
    </edge>
    <edge id=":1438345302_3" function="internal">
        <lane id=":1438345302_3_0" index="0" disallow="tram rail_urban rail rail_electric rail_fast ship" speed="13.89" length="14.36" shape="783.02,1746.89 797.34,1748.02"/>
    </edge>
    <edge id=":1438345302_4" function="internal">
        <lane id=":1438345302_4_0" index="0" disallow="tram rail_urban rail rail_electric rail_fast ship" speed="8.00" length="5.88" shape="783.02,1746.89 786.82,1747.75 788.43,1748.92"/>
    </edge>
    <edge id=":1438345302_5" function="internal">
        <lane id=":1438345302_5_0" index="0" disallow="tram rail_urban rail rail_electric rail_fast ship" speed="3.65" length="2.34" shape="783.02,1746.89 784.15,1747.78 784.48,1748.61"/>
    </edge>
    <edge id=":1438345302_10" function="internal">
        <lane id=":1438345302_10_0" index="0" disallow="tram rail_urban rail rail_electric rail_fast ship" speed="8.00" length="8.32" shape="788.43,1748.92 789.42,1749.63 790.83,1752.51 791.05,1756.40"/>
    </edge>
    <edge id=":1438345302_11" function="internal">
        <lane id=":1438345302_11_0" index="0" disallow="tram rail_urban rail rail_electric rail_fast ship" speed="3.65" length="2.34" shape="784.48,1748.61 784.02,1749.38 782.76,1750.07"/>
    </edge>
    <edge id=":1438345302_6" function="internal">
        <lane id=":1438345302_6_0" index="0" disallow="tram rail_urban rail rail_electric rail_fast ship" speed="6.50" length="9.03" shape="787.86,1756.12 787.72,1753.65 786.82,1751.82 785.17,1750.63 782.76,1750.07"/>
    </edge>
    <edge id=":1438345302_7" function="internal">
        <lane id=":1438345302_7_0" index="0" disallow="tram rail_urban rail rail_electric rail_fast ship" speed="8.03" length="14.18" shape="787.86,1756.12 788.74,1752.33 790.61,1749.72 793.47,1748.28 797.34,1748.02"/>
    </edge>
    <edge id=":1438345302_8" function="internal">
        <lane id=":1438345302_8_0" index="0" disallow="tram rail_urban rail rail_electric rail_fast ship" speed="3.65" length="4.67" shape="787.86,1756.12 788.76,1755.00 789.59,1754.67 790.36,1755.13 791.05,1756.40"/>
    </edge>
    <edge id=":1438345344_0" function="internal">
        <lane id=":1438345344_0_0" index="0" disallow="tram rail_urban rail rail_electric rail_fast ship" speed="6.57" length="9.16" shape="1042.50,1839.06 1040.19,1838.14 1038.13,1838.19 1036.31,1839.20 1034.75,1841.18"/>
    </edge>
    <edge id=":1438345344_1" function="internal">
        <lane id=":1438345344_1_0" index="0" disallow="tram rail_urban rail rail_electric rail_fast ship" speed="13.89" length="14.47" shape="1042.50,1839.06 1029.89,1831.98"/>
    </edge>
    <edge id=":1438345344_2" function="internal">
        <lane id=":1438345344_2_0" index="0" disallow="tram rail_urban rail rail_electric rail_fast ship" speed="8.00" length="14.20" shape="1042.50,1839.06 1039.44,1836.66 1037.88,1833.86 1037.83,1830.65 1039.28,1827.04"/>
    </edge>
    <edge id=":1438345344_3" function="internal">
        <lane id=":1438345344_3_0" index="0" disallow="tram rail_urban rail rail_electric rail_fast ship" speed="3.65" length="4.67" shape="1042.50,1839.06 1041.86,1837.77 1041.92,1836.88 1042.66,1836.38 1044.10,1836.29"/>
    </edge>
    <edge id=":1438345344_4" function="internal">
        <lane id=":1438345344_4_0" index="0" disallow="tram rail_urban rail rail_electric rail_fast ship" speed="6.50" length="9.03" shape="1042.05,1828.64 1041.13,1830.94 1041.16,1832.98 1042.15,1834.76 1044.10,1836.29"/>
    </edge>
    <edge id=":1438345344_5" function="internal">
        <lane id=":1438345344_5_0" index="0" disallow="tram rail_urban rail rail_electric rail_fast ship" speed="13.89" length="14.51" shape="1042.05,1828.64 1034.75,1841.18"/>
    </edge>
    <edge id=":1438345344_6" function="internal">
        <lane id=":1438345344_6_0" index="0" disallow="tram rail_urban rail rail_electric rail_fast ship" speed="8.10" length="5.96" shape="1042.05,1828.64 1039.65,1831.70 1037.83,1832.71"/>
    </edge>
    <edge id=":1438345344_7" function="internal">
        <lane id=":1438345344_7_0" index="0" disallow="tram rail_urban rail rail_electric rail_fast ship" speed="3.65" length="2.34" shape="1042.05,1828.64 1040.76,1829.28 1039.86,1829.23"/>
    </edge>
    <edge id=":1438345344_16" function="internal">
        <lane id=":1438345344_16_0" index="0" disallow="tram rail_urban rail rail_electric rail_fast ship" speed="8.10" length="8.34" shape="1037.83,1832.71 1036.82,1833.27 1033.56,1833.37 1029.89,1831.98"/>
    </edge>
    <edge id=":1438345344_17" function="internal">
        <lane id=":1438345344_17_0" index="0" disallow="tram rail_urban rail rail_electric rail_fast ship" speed="3.65" length="2.34" shape="1039.86,1829.23 1039.37,1828.48 1039.28,1827.04"/>
    </edge>
    <edge id=":1438345344_8" function="internal">
        <lane id=":1438345344_8_0" index="0" disallow="tram rail_urban rail rail_electric rail_fast ship" speed="6.63" length="9.23" shape="1031.42,1829.17 1033.80,1830.07 1035.90,1830.02 1037.73,1829.01 1039.28,1827.04"/>
    </edge>
    <edge id=":1438345344_9" function="internal">
        <lane id=":1438345344_9_0" index="0" disallow="tram rail_urban rail rail_electric rail_fast ship" speed="13.89" length="14.54" shape="1031.42,1829.17 1044.10,1836.29"/>
    </edge>
    <edge id=":1438345344_10" function="internal">
        <lane id=":1438345344_10_0" index="0" disallow="tram rail_urban rail rail_electric rail_fast ship" speed="7.95" length="14.31" shape="1031.42,1829.17 1034.58,1831.54 1036.18,1834.32 1036.24,1837.54 1034.75,1841.18"/>
    </edge>
    <edge id=":1438345344_11" function="internal">
        <lane id=":1438345344_11_0" index="0" disallow="tram rail_urban rail rail_electric rail_fast ship" speed="3.65" length="4.67" shape="1031.42,1829.17 1032.09,1830.45 1032.06,1831.35 1031.33,1831.86 1029.89,1831.98"/>
    </edge>
    <edge id=":1438345344_12" function="internal">
        <lane id=":1438345344_12_0" index="0" disallow="tram rail_urban rail rail_electric rail_fast ship" speed="6.44" length="9.03" shape="1031.99,1839.56 1032.93,1837.26 1032.89,1835.23 1031.88,1833.47 1029.89,1831.98"/>
    </edge>
    <edge id=":1438345344_13" function="internal">
        <lane id=":1438345344_13_0" index="0" disallow="tram rail_urban rail rail_electric rail_fast ship" speed="13.89" length="14.49" shape="1031.99,1839.56 1039.28,1827.04"/>
    </edge>
    <edge id=":1438345344_14" function="internal">
        <lane id=":1438345344_14_0" index="0" disallow="tram rail_urban rail rail_electric rail_fast ship" speed="8.05" length="5.96" shape="1031.99,1839.56 1034.43,1836.49 1036.20,1835.50"/>
    </edge>
    <edge id=":1438345344_15" function="internal">
        <lane id=":1438345344_15_0" index="0" disallow="tram rail_urban rail rail_electric rail_fast ship" speed="3.65" length="2.34" shape="1031.99,1839.56 1033.28,1838.93 1034.18,1838.99"/>
    </edge>
    <edge id=":1438345344_18" function="internal">
        <lane id=":1438345344_18_0" index="0" disallow="tram rail_urban rail rail_electric rail_fast ship" speed="8.05" length="8.33" shape="1036.20,1835.50 1037.26,1834.91 1040.49,1834.85 1044.10,1836.29"/>
    </edge>
    <edge id=":1438345344_19" function="internal">
        <lane id=":1438345344_19_0" index="0" disallow="tram rail_urban rail rail_electric rail_fast ship" speed="3.65" length="2.34" shape="1034.18,1838.99 1034.66,1839.74 1034.75,1841.18"/>
    </edge>
    <edge id=":1438345351_0" function="internal">
        <lane id=":1438345351_0_0" index="0" disallow="tram rail_urban rail rail_electric rail_fast ship" speed="6.62" length="9.51" shape="1551.49,1888.19 1549.18,1887.26 1547.09,1887.38 1545.22,1888.53 1543.57,1890.71"/>
    </edge>
    <edge id=":1438345351_1" function="internal">
        <lane id=":1438345351_1_0" index="0" disallow="tram rail_urban rail rail_electric rail_fast ship" speed="13.89" length="14.74" shape="1551.49,1888.19 1548.25,1886.38 1544.96,1884.77 1541.60,1883.33 1538.12,1882.05"/>
    </edge>
    <edge id=":1438345351_2" function="internal">
        <lane id=":1438345351_2_0" index="0" disallow="tram rail_urban rail rail_electric rail_fast ship" speed="3.65" length="2.34" shape="1551.49,1888.19 1550.86,1886.89 1550.93,1885.99"/>
    </edge>
    <edge id=":1438345351_9" function="internal">
        <lane id=":1438345351_9_0" index="0" disallow="tram rail_urban rail rail_electric rail_fast ship" speed="3.65" length="2.34" shape="1550.93,1885.99 1551.69,1885.51 1553.13,1885.44"/>
    </edge>
    <edge id=":1438345351_3" function="internal">
        <lane id=":1438345351_3_0" index="0" disallow="tram rail_urban rail rail_electric rail_fast ship" speed="13.89" length="15.40" shape="1539.16,1879.02 1542.73,1880.35 1546.31,1881.88 1549.80,1883.58 1553.13,1885.44"/>
    </edge>
    <edge id=":1438345351_4" function="internal">
        <lane id=":1438345351_4_0" index="0" disallow="tram rail_urban rail rail_electric rail_fast ship" speed="7.71" length="6.47" shape="1539.16,1879.02 1542.90,1880.94 1544.27,1882.73"/>
    </edge>
    <edge id=":1438345351_5" function="internal">
        <lane id=":1438345351_5_0" index="0" disallow="tram rail_urban rail rail_electric rail_fast ship" speed="3.65" length="2.34" shape="1539.16,1879.02 1540.03,1880.17 1540.15,1881.05"/>
    </edge>
    <edge id=":1438345351_10" function="internal">
        <lane id=":1438345351_10_0" index="0" disallow="tram rail_urban rail rail_electric rail_fast ship" speed="7.71" length="8.49" shape="1544.27,1882.73 1544.89,1883.54 1545.11,1886.79 1543.57,1890.71"/>
    </edge>
    <edge id=":1438345351_11" function="internal">
        <lane id=":1438345351_11_0" index="0" disallow="tram rail_urban rail rail_electric rail_fast ship" speed="3.65" length="2.34" shape="1540.15,1881.05 1539.51,1881.68 1538.12,1882.05"/>
    </edge>
    <edge id=":1438345351_6" function="internal">
        <lane id=":1438345351_6_0" index="0" disallow="tram rail_urban rail rail_electric rail_fast ship" speed="6.14" length="9.06" shape="1540.79,1889.13 1541.72,1886.75 1541.59,1884.78 1540.39,1883.21 1538.12,1882.05"/>
    </edge>
    <edge id=":1438345351_7" function="internal">
        <lane id=":1438345351_7_0" index="0" disallow="tram rail_urban rail rail_electric rail_fast ship" speed="8.09" length="14.75" shape="1540.79,1889.13 1543.32,1885.80 1546.22,1884.08 1549.49,1883.96 1553.13,1885.44"/>
    </edge>
    <edge id=":1438345351_8" function="internal">
        <lane id=":1438345351_8_0" index="0" disallow="tram rail_urban rail rail_electric rail_fast ship" speed="3.65" length="4.67" shape="1540.79,1889.13 1542.08,1888.48 1542.97,1888.53 1543.47,1889.27 1543.57,1890.71"/>
    </edge>
    <edge id=":1438345360_0" function="internal">
        <lane id=":1438345360_0_0" index="0" disallow="tram rail_urban rail rail_electric rail_fast ship" speed="6.51" length="8.81" shape="782.50,1895.03 780.23,1894.22 778.23,1894.32 776.50,1895.32 775.03,1897.22"/>
    </edge>
    <edge id=":1438345360_1" function="internal">
        <lane id=":1438345360_1_0" index="0" disallow="tram rail_urban rail rail_electric rail_fast ship" speed="8.92" length="13.48" shape="782.50,1895.03 779.43,1892.93 777.40,1890.40 776.42,1887.43 776.49,1884.03"/>
    </edge>
    <edge id=":1438345360_2" function="internal">
        <lane id=":1438345360_2_0" index="0" disallow="tram rail_urban rail rail_electric rail_fast ship" speed="3.65" length="4.67" shape="782.50,1895.03 781.81,1893.76 781.82,1892.87 782.55,1892.35 783.98,1892.20"/>
    </edge>
    <edge id=":1438345360_3" function="internal">
        <lane id=":1438345360_3_0" index="0" disallow="tram rail_urban rail rail_electric rail_fast ship" speed="7.56" length="9.46" shape="779.64,1884.55 779.62,1886.88 780.33,1888.94 781.79,1890.71 783.98,1892.20"/>
    </edge>
    <edge id=":1438345360_4" function="internal">
        <lane id=":1438345360_4_0" index="0" disallow="tram rail_urban rail rail_electric rail_fast ship" speed="13.89" length="13.57" shape="779.64,1884.55 778.93,1888.00 777.96,1891.10 776.68,1894.10 775.03,1897.22"/>
    </edge>
    <edge id=":1438345360_5" function="internal">
        <lane id=":1438345360_5_0" index="0" disallow="tram rail_urban rail rail_electric rail_fast ship" speed="3.65" length="2.34" shape="779.64,1884.55 778.66,1885.60 777.81,1885.87"/>
    </edge>
    <edge id=":1438345360_9" function="internal">
        <lane id=":1438345360_9_0" index="0" disallow="tram rail_urban rail rail_electric rail_fast ship" speed="3.65" length="2.34" shape="777.81,1885.87 777.08,1885.35 776.49,1884.03"/>
    </edge>
    <edge id=":1438345360_6" function="internal">
        <lane id=":1438345360_6_0" index="0" disallow="tram rail_urban rail rail_electric rail_fast ship" speed="13.89" length="12.44" shape="772.25,1895.64 773.84,1892.68 774.99,1890.06 775.83,1887.32 776.49,1884.03"/>
    </edge>
    <edge id=":1438345360_7" function="internal">
        <lane id=":1438345360_7_0" index="0" disallow="tram rail_urban rail rail_electric rail_fast ship" speed="8.01" length="5.31" shape="772.25,1895.64 774.56,1892.65 775.89,1891.88"/>
    </edge>
    <edge id=":1438345360_8" function="internal">
        <lane id=":1438345360_8_0" index="0" disallow="tram rail_urban rail rail_electric rail_fast ship" speed="3.65" length="2.34" shape="772.25,1895.64 773.54,1894.99 774.43,1895.04"/>
    </edge>
    <edge id=":1438345360_10" function="internal">
        <lane id=":1438345360_10_0" index="0" disallow="tram rail_urban rail rail_electric rail_fast ship" speed="8.01" length="8.53" shape="775.89,1891.88 777.29,1891.08 780.43,1890.93 783.98,1892.20"/>
    </edge>
    <edge id=":1438345360_11" function="internal">
        <lane id=":1438345360_11_0" index="0" disallow="tram rail_urban rail rail_electric rail_fast ship" speed="3.65" length="2.34" shape="774.43,1895.04 774.93,1895.78 775.03,1897.22"/>
    </edge>
    <edge id=":1438345369_0" function="internal">
        <lane id=":1438345369_0_0" index="0" disallow="tram rail_urban rail rail_electric rail_fast ship" speed="6.49" length="9.03" shape="1230.83,1947.52 1228.52,1946.61 1226.49,1946.65 1224.71,1947.66 1223.21,1949.63"/>
    </edge>
    <edge id=":1438345369_1" function="internal">
        <lane id=":1438345369_1_0" index="0" disallow="tram rail_urban rail rail_electric rail_fast ship" speed="13.89" length="14.40" shape="1230.83,1947.52 1218.34,1940.35"/>
    </edge>
    <edge id=":1438345369_2" function="internal">
        <lane id=":1438345369_2_0" index="0" disallow="tram rail_urban rail rail_electric rail_fast ship" speed="3.65" length="2.34" shape="1230.83,1947.52 1230.18,1946.23 1230.23,1945.34"/>
    </edge>
    <edge id=":1438345369_9" function="internal">
        <lane id=":1438345369_9_0" index="0" disallow="tram rail_urban rail rail_electric rail_fast ship" speed="3.65" length="2.34" shape="1230.23,1945.34 1230.98,1944.84 1232.42,1944.74"/>
    </edge>
    <edge id=":1438345369_3" function="internal">
        <lane id=":1438345369_3_0" index="0" disallow="tram rail_urban rail rail_electric rail_fast ship" speed="13.89" length="14.39" shape="1219.94,1937.58 1232.42,1944.74"/>
    </edge>
    <edge id=":1438345369_4" function="internal">
        <lane id=":1438345369_4_0" index="0" disallow="tram rail_urban rail rail_electric rail_fast ship" speed="8.04" length="5.90" shape="1219.94,1937.58 1222.99,1939.97 1223.97,1941.74"/>
    </edge>
    <edge id=":1438345369_5" function="internal">
        <lane id=":1438345369_5_0" index="0" disallow="tram rail_urban rail rail_electric rail_fast ship" speed="3.65" length="2.34" shape="1219.94,1937.58 1220.58,1938.87 1220.53,1939.76"/>
    </edge>
    <edge id=":1438345369_10" function="internal">
        <lane id=":1438345369_10_0" index="0" disallow="tram rail_urban rail rail_electric rail_fast ship" speed="8.04" length="8.30" shape="1223.97,1941.74 1224.55,1942.77 1224.62,1945.99 1223.21,1949.63"/>
    </edge>
    <edge id=":1438345369_11" function="internal">
        <lane id=":1438345369_11_0" index="0" disallow="tram rail_urban rail rail_electric rail_fast ship" speed="3.65" length="2.34" shape="1220.53,1939.76 1219.78,1940.26 1218.34,1940.35"/>
    </edge>
    <edge id=":1438345369_6" function="internal">
        <lane id=":1438345369_6_0" index="0" disallow="tram rail_urban rail rail_electric rail_fast ship" speed="6.55" length="9.08" shape="1220.42,1948.06 1221.32,1945.73 1221.28,1943.67 1220.29,1941.88 1218.34,1940.35"/>
    </edge>
    <edge id=":1438345369_7" function="internal">
        <lane id=":1438345369_7_0" index="0" disallow="tram rail_urban rail rail_electric rail_fast ship" speed="7.99" length="14.23" shape="1220.42,1948.06 1222.79,1944.96 1225.58,1943.38 1228.79,1943.30 1232.42,1944.74"/>
    </edge>
    <edge id=":1438345369_8" function="internal">
        <lane id=":1438345369_8_0" index="0" disallow="tram rail_urban rail rail_electric rail_fast ship" speed="3.65" length="4.67" shape="1220.42,1948.06 1221.70,1947.41 1222.60,1947.45 1223.10,1948.19 1223.21,1949.63"/>
    </edge>
    <edge id=":1438345373_0" function="internal">
        <lane id=":1438345373_0_0" index="0" disallow="tram rail_urban rail rail_electric rail_fast ship" speed="6.62" length="9.14" shape="1506.85,1966.49 1504.50,1965.58 1502.41,1965.60 1500.59,1966.56 1499.02,1968.47"/>
    </edge>
    <edge id=":1438345373_1" function="internal">
        <lane id=":1438345373_1_0" index="0" disallow="tram rail_urban rail rail_electric rail_fast ship" speed="7.99" length="14.23" shape="1506.85,1966.49 1503.75,1964.12 1502.16,1961.34 1502.08,1958.13 1503.51,1954.50"/>
    </edge>
    <edge id=":1438345373_2" function="internal">
        <lane id=":1438345373_2_0" index="0" disallow="tram rail_urban rail rail_electric rail_fast ship" speed="3.65" length="4.67" shape="1506.85,1966.49 1506.19,1965.21 1506.24,1964.31 1506.97,1963.81 1508.41,1963.70"/>
    </edge>
    <edge id=":1438345373_3" function="internal">
        <lane id=":1438345373_3_0" index="0" disallow="tram rail_urban rail rail_electric rail_fast ship" speed="6.49" length="9.03" shape="1506.29,1956.08 1505.38,1958.39 1505.43,1960.42 1506.44,1962.19 1508.41,1963.70"/>
    </edge>
    <edge id=":1438345373_4" function="internal">
        <lane id=":1438345373_4_0" index="0" disallow="tram rail_urban rail rail_electric rail_fast ship" speed="13.89" length="14.36" shape="1506.29,1956.08 1499.02,1968.47"/>
    </edge>
    <edge id=":1438345373_5" function="internal">
        <lane id=":1438345373_5_0" index="0" disallow="tram rail_urban rail rail_electric rail_fast ship" speed="3.65" length="2.34" shape="1506.29,1956.08 1505.00,1956.73 1504.11,1956.68"/>
    </edge>
    <edge id=":1438345373_9" function="internal">
        <lane id=":1438345373_9_0" index="0" disallow="tram rail_urban rail rail_electric rail_fast ship" speed="3.65" length="2.34" shape="1504.11,1956.68 1503.61,1955.94 1503.51,1954.50"/>
    </edge>
    <edge id=":1438345373_6" function="internal">
        <lane id=":1438345373_6_0" index="0" disallow="tram rail_urban rail rail_electric rail_fast ship" speed="13.89" length="14.28" shape="1496.28,1966.81 1503.51,1954.50"/>
    </edge>
    <edge id=":1438345373_7" function="internal">
        <lane id=":1438345373_7_0" index="0" disallow="tram rail_urban rail rail_electric rail_fast ship" speed="8.10" length="5.75" shape="1496.28,1966.81 1498.72,1963.85 1500.41,1962.94"/>
    </edge>
    <edge id=":1438345373_8" function="internal">
        <lane id=":1438345373_8_0" index="0" disallow="tram rail_urban rail rail_electric rail_fast ship" speed="3.65" length="2.34" shape="1496.28,1966.81 1497.59,1966.20 1498.48,1966.27"/>
    </edge>
    <edge id=":1438345373_10" function="internal">
        <lane id=":1438345373_10_0" index="0" disallow="tram rail_urban rail rail_electric rail_fast ship" speed="8.10" length="8.42" shape="1500.41,1962.94 1501.55,1962.34 1504.78,1962.29 1508.41,1963.70"/>
    </edge>
    <edge id=":1438345373_11" function="internal">
        <lane id=":1438345373_11_0" index="0" disallow="tram rail_urban rail rail_electric rail_fast ship" speed="3.65" length="2.34" shape="1498.48,1966.27 1498.96,1967.03 1499.02,1968.47"/>
    </edge>
    <edge id=":1438345381_0" function="internal">
        <lane id=":1438345381_0_0" index="0" disallow="tram rail_urban rail rail_electric rail_fast ship" speed="13.89" length="14.58" shape="733.47,1981.64 720.86,1974.33"/>
    </edge>
    <edge id=":1438345381_1" function="internal">
        <lane id=":1438345381_1_0" index="0" disallow="tram rail_urban rail rail_electric rail_fast ship" speed="7.99" length="6.12" shape="733.47,1981.64 730.36,1979.28 729.26,1977.35"/>
    </edge>
    <edge id=":1438345381_2" function="internal">
        <lane id=":1438345381_2_0" index="0" disallow="tram rail_urban rail rail_electric rail_fast ship" speed="3.65" length="2.34" shape="733.47,1981.64 732.81,1980.36 732.85,1979.47"/>
    </edge>
    <edge id=":1438345381_9" function="internal">
        <lane id=":1438345381_9_0" index="0" disallow="tram rail_urban rail rail_electric rail_fast ship" speed="7.99" length="8.15" shape="729.26,1977.35 728.77,1976.48 728.69,1973.26 730.13,1969.61"/>
    </edge>
    <edge id=":1438345381_10" function="internal">
        <lane id=":1438345381_10_0" index="0" disallow="tram rail_urban rail rail_electric rail_fast ship" speed="3.65" length="2.34" shape="732.85,1979.47 733.58,1978.96 735.02,1978.84"/>
    </edge>
    <edge id=":1438345381_3" function="internal">
        <lane id=":1438345381_3_0" index="0" disallow="tram rail_urban rail rail_electric rail_fast ship" speed="6.50" length="9.07" shape="732.91,1971.19 731.99,1973.52 732.04,1975.57 733.05,1977.34 735.02,1978.84"/>
    </edge>
    <edge id=":1438345381_4" function="internal">
        <lane id=":1438345381_4_0" index="0" disallow="tram rail_urban rail rail_electric rail_fast ship" speed="7.95" length="14.29" shape="732.91,1971.19 730.50,1974.30 727.69,1975.85 724.48,1975.87 720.86,1974.33"/>
    </edge>
    <edge id=":1438345381_5" function="internal">