<?xml version="1.0" encoding="UTF-8"?>
<!-- generated on 2021-01-15 12:59:37.836422 by routeSampler.py UNKNOWN
  options: -r Scenarios/VitalTri/VitalTriAM/VitalTriAM.rou.xml -t Scenarios/VitalTri/VitalTriAM/VitalTriAM.turn.xml -o Scenarios/VitalTri/VitalTriAM/VitalTriAM_Optimized.rou.xml <doubleminus>optimize full
-->
<routes xmlns:xsi="http://www.w3.org/2001/XMLSchema-instance" xsi:noNamespaceSchemaLocation="http://sumo.dlr.de/xsd/routes_file.xsd">
<!-- begin="0.0" end="3600.0" -->
    <vehicle id="0" depart="0.00">
        <route edges="edge_101_1#5 edge_1_2#0 edge_1_2#1 41205287#1 -41205375#1 41205375#1 41205375#2 32868406#6 32868406#9 edge_1_101#4 edge_1_101#5"/>
    </vehicle>
    <vehicle id="1" depart="0.30">
        <route edges="edge_3_2#5 edge_2_103#0 edge_2_103#1 edge_2_103#2 edge_2_103#3 edge_2_103#4"/>
    </vehicle>
    <vehicle id="2" depart="0.60">
        <route edges="edge_3_2#5 edge_2_103#0 edge_2_103#1 edge_2_103#2 edge_2_103#3 edge_2_103#4"/>
    </vehicle>
    <vehicle id="3" depart="0.90">
        <route edges="edge_106_8#14 edge_8_7#0 edge_8_7#1 edge_8_7#2 edge_8_7#3 edge_7_6#0 edge_7_6#1 edge_7_6#2 289432764"/>
    </vehicle>
    <vehicle id="4" depart="1.19">
        <route edges="edge_5_2#5 edge_2_1#0 edge_2_1#1 edge_2_1#2 edge_2_1#3 41205233#1 41205233#2 41205375#0 41205375#1 41205375#2 41205375#4 41205375#5 41208868#3 41208868#6 edge_1_101#5"/>
    </vehicle>
    <vehicle id="5" depart="1.49">
        <route edges="edge_2_1#10 edge_1_102#0 edge_1_102#1 32868406#9 gneE79"/>
    </vehicle>
    <vehicle id="6" depart="1.79">
        <route edges="edge_7_6#6 edge_6_104#0 edge_6_104#1"/>
    </vehicle>
    <vehicle id="7" depart="2.09">
        <route edges="edge_107_3#2 ramp_3_NE edge_3_4#1 edge_3_4#2 41205403#1 41205403#2 edge_2_1#5 edge_2_1#6 41205377 -41205375#0 41205233#3 41205233#5 -41205233#5 -41205233#4 -41205233#2 -41205233#1 edge_1_2#7 edge_1_2#8 edge_1_2#9 edge_1_2#10 edge_1_2#11 ramp_2_NW edge_2_103#1 edge_2_103#2 edge_2_103#3 edge_2_103#4"/>
    </vehicle>
    <vehicle id="8" depart="2.39">
        <route edges="edge_104_6#1 edge_6_5#0 edge_6_5#1 edge_6_5#2 edge_6_5#3 edge_6_5#4 -130655214#5 -130655214#4 130655057#3 -130655020#5 -130655141 130655139 -130655020#4 -130655171#3 -130655171#2 -130655171#1 -130655171#0 130655171#0 edge_109_6#0 edge_6_109#2 130655171#1 130655214#2 -130655214#2 130655171#2 130655171#3 -130655020#1 -130655020#0 130655020#0 130655020#1 130655020#2 130655020#5 130655020#6 -130655020#6 -130655057#5 130655214#4 -130655278 -130655057#0 130655057#0 130655057#1 -130655057#2 130655278 130655325#0 -130655325#1 130655214#5 edge_5_6#3 edge_5_6#4 edge_6_104#0 edge_6_104#1"/>
    </vehicle>
    <vehicle id="9" depart="2.69">
        <route edges="edge_104_6#1 edge_6_5#0 edge_6_5#1 edge_6_5#2 edge_6_5#3 edge_6_5#4 edge_6_5#5 edge_6_5#6 edge_6_5#8 edge_6_5#9 edge_5_2#0 edge_5_2#1 edge_5_2#2 -130655020#7 -130655325#1 130655325#0 130655020#7 edge_2_5#2 edge_2_5#3 edge_110_5#0"/>
    </vehicle>
    <vehicle id="10" depart="2.99">
        <route edges="edge_102_1#6 edge_1_4#0 edge_1_4#1 edge_1_4#2 edge_1_4#3 edge_4_108#0 edge_108_4#6 edge_4_1#0 edge_4_1#1 edge_4_1#2 ramp_1_NE edge_1_101#1 edge_1_101#2 edge_1_101#3 edge_1_101#4 edge_1_101#5"/>
    </vehicle>
    <vehicle id="11" depart="3.28">
        <route edges="edge_3_2#5 edge_2_103#0 edge_2_103#1 edge_2_103#2 edge_2_103#3 edge_2_103#4"/>
    </vehicle>
    <vehicle id="12" depart="3.58">
        <route edges="edge_9_3#5 edge_3_4#0 edge_3_4#1 edge_3_4#2 41205403#1 41205403#2 edge_2_1#5 edge_2_1#6 41205377 -41205375#0 41205233#3 41205233#5 41205233#6 41208868#0 41208868#1 41208868#2 41208868#3 edge_102_1#2 edge_102_1#3 32868406#9 edge_1_101#4 edge_1_101#5"/>
    </vehicle>
    <vehicle id="13" depart="3.88">
        <route edges="edge_101_1#5 edge_1_2#0 edge_1_2#1 41205287#1 41205375#2 32868406#6 edge_1_102#2 -41208868#3 41208868#3 41208868#6 edge_1_101#5"/>
    </vehicle>
    <vehicle id="14" depart="4.18">
        <route edges="edge_104_6#1 edge_6_5#0 edge_6_5#1 edge_6_5#2 edge_6_5#3 edge_6_5#4 -130655214#5 130655325#0 -130655020#6 130655020#6 130655020#7 edge_2_5#2 edge_2_5#3 edge_110_5#0"/>
    </vehicle>
    <vehicle id="15" depart="4.48">
        <route edges="edge_106_8#14 edge_8_7#0 edge_8_7#1 edge_8_7#2 edge_8_7#3 edge_7_6#0 edge_7_6#1 edge_7_6#2 289432764"/>
    </vehicle>
    <vehicle id="16" depart="4.78">
        <route edges="edge_9_3#5 edge_3_4#0 edge_3_4#1 edge_3_4#2 41205403#1 41205403#2 edge_2_1#5 edge_2_1#6 41205377 -41205375#0 41205233#3 41205233#5 41205233#6 41208868#0 41208868#1 41208868#2 41208868#3 edge_102_1#2 edge_102_1#3 32868406#9 edge_1_101#4 edge_1_101#5"/>
    </vehicle>
    <vehicle id="17" depart="5.08">
        <route edges="edge_5_2#5 edge_2_1#0 edge_2_1#1 edge_2_1#2 edge_2_1#3 41205233#1 -41205233#1 edge_2_1#4 edge_2_1#5 edge_2_1#6 41205377 -41205375#0 41205233#3 41205233#5 41205233#6 100317222#11 -100317222#12 41208868#0 41208868#1 -41212173#1 41212224#1 -41205375#8 41205375#8 -41212224#1 -41212224#0 -41212177#0 -32868405#2 -41205375#9 41205375#9 32868405#1 32868405#3 -32868405#3 41212177#0 41212224#0 41212173#0 41208868#2 -41205375#7 -41205375#4 -32868406#5 -32868406#4 -41209074#1 41209074#1 32868406#2 32868406#5 32868406#6 32868406#9 gneE79"/>
    </vehicle>
    <vehicle id="18" depart="5.38">
        <route edges="edge_5_2#5 edge_2_1#0 edge_2_1#1 edge_2_1#2 edge_2_1#3 41205233#1 -41205233#1 edge_2_1#4 edge_2_1#5 edge_2_1#6 41205377 -41205375#0 41205233#3 41205233#5 41205233#6 100317222#11 -100317222#12 41208868#0 41208868#1 -41212173#1 41212224#1 -41205375#8 41205375#8 -41212224#1 -41212224#0 -41212177#0 -32868405#2 -41205375#9 41205375#9 32868405#1 32868405#3 -32868405#3 41212177#0 41212224#0 41212173#0 41208868#2 -41205375#7 -41205375#4 -32868406#5 -32868406#4 -41209074#1 41209074#1 32868406#2 32868406#5 32868406#6 32868406#9 gneE79"/>
    </vehicle>
    <vehicle id="19" depart="5.67">
        <route edges="edge_102_1#6 edge_1_4#0 edge_1_4#1 edge_1_4#2 edge_1_4#3 edge_4_3#0 41205403#1 41205403#2 edge_2_1#5 edge_2_1#6 41205377 -41205375#0 41205233#3 41205233#5 41205233#6 100317222#11 -32868405#3 41212177#0 -41212177#0 -32868405#2 32868405#1 32868405#3 -100317222#12 41208868#0 41208868#1 -41208868#1 -41209072#3 41209074#0 41209072#0 -41209072#2 41209074#1 32868406#2 32868406#5 41205375#4 -41208590#1 41208590#1 41205375#5 41205375#8 -41212224#1 41212224#1 -41205375#8 -41205375#7 -41205375#4 -32868406#5 -32868406#4 -gneE65 41205274#0 -41205274#1 -gneE66 -41209074#1 -41209074#0 41209072#3 -41208868#0 -100317222#10 -41205233#5 -41205233#4 41205375#0 41205375#1 41205375#2 32868406#6 32868406#9 gneE79"/>
    </vehicle>
    <vehicle id="20" depart="5.97">
        <route edges="edge_9_3#5 edge_3_4#0 edge_3_4#1 edge_3_4#2 edge_3_4#3 edge_3_4#4 edge_4_1#0 edge_1_4#3 edge_4_108#0 edge_4_108#1 -155378620#0 155378620#0 edge_108_4#5 edge_108_4#6 edge_4_3#0 41205403#1 41205403#2 edge_1_2#6 edge_1_2#7 edge_1_2#8 edge_1_2#9 edge_1_2#10 edge_1_2#11 ramp_2_NW edge_2_103#1 edge_2_103#2 edge_2_103#3 edge_2_103#4"/>
    </vehicle>
    <vehicle id="21" depart="6.27">
        <route edges="edge_3_2#5 edge_2_103#0 edge_2_103#1 edge_2_103#2 edge_2_103#3 edge_2_103#4"/>
    </vehicle>
    <vehicle id="22" depart="6.57">
        <route edges="edge_4_1#3 edge_1_102#0 edge_1_102#1 edge_1_102#2 -41208868#3 -41208868#2 41208868#2 -41205375#7 41205375#5 41205375#8 -41212224#1 -41212224#0 -41212177#0 32868405#3 -100317222#12 41208868#0 41208868#1 -41208868#1 -41209072#3 41209072#3 -41208868#0 100317222#11 -32868405#3 -32868405#2 -41205375#9 -41205375#8 41208868#3 41208868#6 edge_1_101#5"/>
    </vehicle>
    <vehicle id="23" depart="6.87">
        <route edges="edge_4_1#3 edge_1_102#0 edge_1_102#1 edge_1_102#2 -41208868#3 -41208868#2 41208868#2 -41205375#7 41205375#5 41205375#8 -41212224#1 -41212224#0 -41212177#0 32868405#3 -100317222#12 41208868#0 41208868#1 -41208868#1 -41209072#3 41209072#3 -41208868#0 100317222#11 -32868405#3 -32868405#2 -41205375#9 -41205375#8 41208868#3 41208868#6 edge_1_101#5"/>
    </vehicle>
    <vehicle id="24" depart="7.17">
        <route edges="edge_7_8#6 edge_8_106#0 edge_8_106#1 edge_8_106#2 edge_8_106#3 edge_8_106#4 edge_8_106#5 139283174#1 139283174#2 139284171#2 139283299#1 139283299#2 edge_106_8#11 edge_106_8#12 edge_106_8#13 edge_106_8#14 edge_8_9#0 edge_8_9#1 edge_8_9#2 edge_8_9#3 edge_8_9#4 edge_8_9#5 edge_9_3#0 edge_9_3#1 edge_9_3#2 edge_9_3#3 edge_9_3#4 ramp_3_SE edge_3_107#1 edge_3_107#2"/>
    </vehicle>
    <vehicle id="25" depart="7.47">
        <route edges="edge_104_6#1 edge_6_5#0 edge_6_5#1 edge_6_5#2 edge_6_5#3 edge_6_5#4 -130655214#5 130655325#0 -130655020#6 130655020#6 130655020#7 edge_5_2#3 edge_5_2#4 ramp_2_SE edge_2_3#1 edge_2_3#2 edge_2_3#3 edge_2_3#4 ramp_3_SW edge_3_9#1 edge_3_9#2 edge_3_9#3 edge_3_9#4 ramp_9_NW"/>
    </vehicle>
    <vehicle id="26" depart="7.76">
        <route edges="edge_105_8#9 edge_8_9#0 edge_8_9#1 edge_8_9#2 edge_8_9#3 289430973#0"/>
    </vehicle>
    <vehicle id="27" depart="8.06">
        <route edges="edge_1_2#12 edge_2_5#0 edge_2_5#1 -130655020#7 -130655020#6 130655020#6 130655020#7 edge_2_5#2 edge_2_5#3 edge_110_5#0"/>
    </vehicle>
    <vehicle id="28" depart="8.36">
        <route edges="edge_3_2#5 edge_2_103#0 edge_2_103#1 edge_2_103#2 edge_2_103#3 edge_2_103#4"/>
    </vehicle>
    <vehicle id="29" depart="8.66">
        <route edges="edge_101_1#5 edge_1_2#0 edge_1_2#1 41205287#1 -41205375#1 41205375#1 41205375#2 32868406#6 32868406#9 edge_1_101#4 edge_1_101#5"/>
    </vehicle>
    <vehicle id="30" depart="8.96">
        <route edges="edge_1_2#12 edge_2_5#0 edge_2_5#1 edge_2_5#2 edge_2_5#3 edge_5_6#0 edge_6_5#9 edge_110_5#0"/>
    </vehicle>
    <vehicle id="31" depart="9.26">
        <route edges="edge_9_3#5 edge_3_4#0 edge_3_4#1 edge_3_4#2 41205403#1 41205403#2 edge_2_1#5 edge_2_1#6 41205377 -41205375#0 41205233#3 41205233#5 41205233#6 41208868#0 41208868#1 41208868#2 41208868#3 edge_102_1#2 edge_102_1#3 32868406#9 edge_1_101#4 edge_1_101#5"/>
    </vehicle>
    <vehicle id="32" depart="9.56">
        <route edges="edge_2_3#5 edge_3_4#0 edge_3_4#1 edge_3_4#2 edge_3_4#3 edge_3_4#4 edge_4_108#0 edge_108_4#6 edge_4_1#0 edge_4_1#1 edge_4_1#2 ramp_1_NE edge_1_101#1 edge_1_101#2 edge_1_101#3 edge_1_101#4 edge_1_101#5"/>
    </vehicle>
    <vehicle id="33" depart="9.85">
        <route edges="edge_5_2#5 edge_2_103#0 edge_2_103#1 edge_2_103#2 edge_2_103#3 edge_2_103#4"/>
    </vehicle>
    <vehicle id="34" depart="10.15">
        <route edges="edge_9_3#5 edge_3_4#0 edge_3_4#1 edge_3_4#2 41205403#1 41205403#2 edge_2_1#5 edge_2_1#6 41205377 -41205375#0 41205233#3 41205233#5 41205233#6 41208868#0 41208868#1 41208868#2 41208868#3 edge_102_1#2 edge_102_1#3 32868406#9 edge_1_101#4 edge_1_101#5"/>
    </vehicle>
    <vehicle id="35" depart="10.45">
        <route edges="edge_1_2#12 edge_2_5#0 edge_2_5#1 edge_2_5#2 edge_2_5#3 edge_110_5#0"/>
    </vehicle>
    <vehicle id="36" depart="10.75">
        <route edges="edge_106_8#14 edge_8_9#0 edge_8_9#1 edge_8_9#2 edge_8_9#3 edge_8_9#4 edge_8_9#5 edge_9_3#0 edge_9_3#1 edge_9_3#2 edge_9_3#3 edge_9_3#4 ramp_3_SE edge_3_107#1 edge_3_107#2"/>
    </vehicle>
    <vehicle id="37" depart="11.05">
        <route edges="edge_4_1#3 edge_1_102#0 edge_1_102#1 edge_102_1#4 ramp_1_SW edge_1_2#1 edge_1_2#2 edge_1_2#3 edge_1_2#4 edge_1_2#5 -41205403#2 -41205403#1 edge_3_4#3 edge_3_4#4 edge_4_1#0 edge_1_4#3 edge_4_3#0 41205403#1 41205403#2 edge_1_2#6 edge_1_2#7 edge_1_2#8 edge_1_2#9 edge_1_2#10 edge_1_2#11 ramp_2_NW edge_2_103#1 edge_2_103#2 edge_2_103#3 edge_2_103#4"/>
    </vehicle>
    <vehicle id="38" depart="11.35">
        <route edges="edge_109_6#3 edge_6_5#0 edge_6_5#1 edge_6_5#2 edge_6_5#3 edge_6_5#4 edge_5_6#3 edge_5_6#4 edge_6_104#0 edge_6_104#1"/>
    </vehicle>
    <vehicle id="39" depart="11.65">
        <route edges="edge_3_2#5 edge_2_103#0 edge_2_103#1 edge_2_103#2 edge_2_103#3 edge_2_103#4"/>
    </vehicle>
    <vehicle id="40" depart="11.95">
        <route edges="edge_3_2#5 edge_2_103#0 edge_2_103#1 edge_2_103#2 edge_2_103#3 edge_2_103#4"/>
    </vehicle>
    <vehicle id="41" depart="12.24">
        <route edges="edge_5_2#5 edge_2_1#0 edge_2_1#1 edge_2_1#2 edge_2_1#3 41205233#1 -41205233#1 edge_2_1#4 edge_2_1#5 edge_2_1#6 41205377 -41205375#0 41205233#3 41205233#5 41205233#6 100317222#11 -100317222#12 41208868#0 41208868#1 -41212173#1 41212224#1 -41205375#8 41205375#8 -41212224#1 -41212224#0 -41212177#0 -32868405#2 -41205375#9 41205375#9 32868405#1 32868405#3 -32868405#3 41212177#0 41212224#0 41212173#0 41208868#2 -41205375#7 -41205375#4 -32868406#5 -32868406#4 -41209074#1 41209074#1 32868406#2 32868406#5 32868406#6 32868406#9 gneE79"/>
    </vehicle>
    <vehicle id="42" depart="12.54">
        <route edges="edge_1_2#12 edge_2_5#0 edge_2_5#1 -130655020#7 -130655020#6 130655020#6 130655020#7 edge_2_5#2 edge_2_5#3 edge_110_5#0"/>
    </vehicle>
    <vehicle id="43" depart="12.84">
        <route edges="edge_2_1#10 edge_1_101#0 edge_1_101#1 edge_1_101#2 edge_1_101#3 edge_1_101#4 -41208868#6 -41208868#3 -41208868#2 -41208868#1 -41208868#0 -100317222#10 -41205233#5 41205233#5 41205233#6 41208868#0 -41209072#3 -41209072#2 -41209074#0 41209072#3 41208868#1 41208868#2 41205375#8 41205375#9 32868405#1 41212177#0 -41212177#0 -32868405#2 -41205375#9 -41205375#8 41208868#3 41208868#6 edge_1_101#5"/>
    </vehicle>
    <vehicle id="44" depart="13.14">
        <route edges="edge_9_3#5 edge_3_4#0 edge_3_4#1 edge_3_4#2 41205403#1 41205403#2 edge_2_1#5 edge_2_1#6 41205377 -41205375#0 41205233#3 41205233#5 41205233#6 41208868#0 41208868#1 41208868#2 41208868#3 edge_102_1#2 edge_102_1#3 32868406#9 edge_1_101#4 edge_1_101#5"/>
    </vehicle>
    <vehicle id="45" depart="13.44">
        <route edges="edge_9_3#5 edge_3_4#0 edge_3_4#1 edge_3_4#2 41205403#1 41205403#2 edge_2_1#5 edge_2_1#6 41205377 -41205375#0 41205233#3 41205233#5 41205233#6 41208868#0 41208868#1 41208868#2 41208868#3 edge_102_1#2 edge_102_1#3 32868406#9 edge_1_101#4 edge_1_101#5"/>
    </vehicle>
    <vehicle id="46" depart="13.74">
        <route edges="edge_1_2#12 edge_2_5#0 edge_2_5#1 -130655020#7 -130655325#1 130655214#5 edge_6_5#5 edge_6_5#6 edge_6_5#8 edge_5_6#1 edge_5_6#2 edge_5_6#3 edge_5_6#4 edge_6_104#0 edge_6_104#1"/>
    </vehicle>
    <vehicle id="47" depart="14.04">
        <route edges="edge_101_1#5 edge_1_2#0 edge_1_2#1 41205287#1 41205375#2 32868406#6 edge_1_102#2 -41208868#3 41208868#3 41208868#6 edge_1_101#5"/>
    </vehicle>
    <vehicle id="48" depart="14.33">
        <route edges="edge_4_3#2 edge_3_107#0 edge_3_107#1 edge_3_107#2"/>
    </vehicle>
    <vehicle id="49" depart="14.63">
        <route edges="edge_4_1#3 edge_1_102#0 edge_1_102#1 edge_1_102#2 edge_1_102#3 41212224#5 -41212224#5 edge_1_102#4"/>
    </vehicle>
    <vehicle id="50" depart="14.93">
        <route edges="edge_9_3#5 edge_3_4#0 edge_3_4#1 edge_3_4#2 41205403#1 41205403#2 edge_2_1#5 edge_2_1#6 41205377 -41205375#0 41205233#3 41205233#5 41205233#6 41208868#0 41208868#1 41208868#2 41208868#3 edge_102_1#2 edge_102_1#3 32868406#9 edge_1_101#4 edge_1_101#5"/>
    </vehicle>
    <vehicle id="51" depart="15.23">
        <route edges="edge_101_1#5 edge_1_2#0 edge_1_2#1 41205287#1 41205287#2 -gneE66 32868406#2 -32868406#4 -41209074#1 -41209074#0 41209072#3 -41208868#0 41208868#0 41208868#1 -41212173#1 -41212224#0 -41212177#0 32868405#3 -32868405#3 41212177#0 41212224#0 41212224#1 -41212224#1 41212173#0 41208868#2 -41205375#7 -41208590#1 32868406#5 -32868406#5 41208590#1 41205375#5 41208868#3 edge_102_1#2 edge_102_1#3 32868406#9 gneE79"/>
    </vehicle>
    <vehicle id="52" depart="15.53">
        <route edges="edge_5_2#5 edge_2_1#0 edge_2_1#1 edge_2_1#2 edge_2_1#3 edge_1_2#7 edge_1_2#8 edge_1_2#9 edge_1_2#10 edge_1_2#11 ramp_2_NW edge_2_103#1 edge_2_103#2 edge_2_103#3 edge_2_103#4"/>
    </vehicle>
    <vehicle id="53" depart="15.83">
        <route edges="edge_7_8#6 edge_8_9#0 edge_8_9#1 edge_8_9#2 edge_8_9#3 289430973#0"/>
    </vehicle>
    <vehicle id="54" depart="16.13">
        <route edges="edge_2_1#10 edge_1_102#0 edge_1_102#1 -32868406#6 41205375#4 41205375#5 41205375#8 -41212224#1 41212173#0 -41208868#1 41208868#1 -41212173#1 -41212224#0 41212224#0 41212224#1 41212224#2 edge_1_102#4"/>
    </vehicle>
    <vehicle id="55" depart="16.42">
        <route edges="edge_101_1#5 edge_1_2#0 edge_1_2#1 41205287#1 -41205375#1 41205375#1 41205375#2 32868406#6 32868406#9 edge_1_101#4 edge_1_101#5"/>
    </vehicle>
    <vehicle id="56" depart="16.72">
        <route edges="edge_3_4#4 edge_4_1#0 edge_4_1#1 edge_4_1#2 ramp_1_NE edge_1_101#1 edge_1_101#2 edge_1_101#3 -32868406#9 edge_102_1#4 ramp_1_SW edge_1_2#1 41205287#1 41205287#2 41205274#0 -41205274#1 -gneE66 -41209074#1 -41209074#0 41209072#3 41208868#1 -41212173#1 -41212224#0 41212224#0 41212224#1 41205375#9 -41205375#9 41212224#2 41212224#5 -41212224#5 -41212224#2 -41205375#8 -41208868#2 -41208868#1 -41209072#3 41209074#0 41209072#0 -41209072#2 41209074#1 32868406#2 -32868406#4 -gneE65 -41205287#3 -41205375#1 -41205375#0 41205375#0 41205375#1 41205375#2 32868406#6 32868406#9 gneE79"/>
    </vehicle>
    <vehicle id="57" depart="17.02">
        <route edges="edge_3_2#5 edge_2_103#0 edge_2_103#1 edge_2_103#2 edge_2_103#3 edge_2_103#4"/>
    </vehicle>
    <vehicle id="58" depart="17.32">
        <route edges="edge_5_2#5 edge_2_1#0 edge_2_1#1 edge_2_1#2 edge_2_1#3 41205233#1 -41205233#1 edge_2_1#4 edge_2_1#5 edge_2_1#6 41205377 -41205375#0 -41205233#2"/>
    </vehicle>
    <vehicle id="59" depart="17.62">
        <route edges="edge_104_6#1 edge_6_5#0 edge_6_5#1 edge_6_5#2 edge_6_5#3 edge_6_5#4 edge_6_5#5 edge_6_5#6 edge_6_5#8 edge_6_5#9 edge_110_5#0"/>
    </vehicle>
    <vehicle id="60" depart="17.92">
        <route edges="edge_3_9#5 edge_9_8#0 edge_9_8#1 edge_9_8#2 edge_9_8#3 ramp_8_NW edge_8_7#1 edge_8_7#2 edge_8_7#3 edge_7_6#0 edge_7_6#1 edge_7_6#2 edge_7_6#3 edge_7_6#4 edge_7_6#5 ramp_6_NE edge_6_5#1 edge_6_5#2 edge_6_5#3 edge_6_5#4 edge_6_5#5 edge_6_5#6 edge_5_6#2 edge_5_6#3 edge_5_6#4 edge_6_104#0 edge_6_104#1"/>
    </vehicle>
    <vehicle id="61" depart="18.22">
        <route edges="edge_7_8#6 edge_8_106#0 139400810 -139400810 edge_106_8#12 edge_106_8#13 edge_106_8#14 edge_8_105#0 edge_8_105#1 edge_105_8#7 edge_105_8#8 edge_105_8#9 edge_8_9#0 edge_8_9#1 edge_8_9#2 edge_8_9#3 289430973#0"/>
    </vehicle>
    <vehicle id="62" depart="18.52">
        <route edges="edge_2_1#10 edge_1_101#0 edge_1_101#1 edge_1_101#2 edge_1_101#3 edge_1_101#4 edge_1_101#5"/>
    </vehicle>
    <vehicle id="63" depart="18.81">
        <route edges="edge_4_1#3 edge_1_102#0 edge_1_102#1 32868406#9 edge_1_101#4 edge_1_101#5"/>
    </vehicle>
    <vehicle id="64" depart="19.11">
        <route edges="edge_3_2#5 edge_2_103#0 edge_2_103#1 edge_2_103#2 edge_2_103#3 edge_2_103#4"/>
    </vehicle>
    <vehicle id="65" depart="19.41">
        <route edges="edge_2_1#10 edge_1_101#0 edge_1_101#1 edge_1_101#2 edge_1_101#3 gneE79"/>
    </vehicle>
    <vehicle id="66" depart="19.71">
        <route edges="edge_5_2#5 edge_2_103#0 edge_2_103#1 edge_2_103#2 edge_2_103#3 edge_2_103#4"/>
    </vehicle>
    <vehicle id="67" depart="20.01">
        <route edges="edge_101_1#5 edge_1_2#0 edge_1_2#1 41205287#1 41205287#2 41205274#0 41205233#6 -100317222#10 -41205274#1 -gneE66 -41209074#1 41209072#0 41209074#0 41209074#1 -gneE65 -41205287#3 41205375#2 -41205375#3 -41205375#1 41205375#1 -41205287#1 edge_1_2#2 edge_1_2#3 41205377 -41205375#0 41205375#0 -41205377 edge_1_2#4 edge_1_2#5 edge_1_2#6 edge_2_1#4 -41205403#2 -41205403#1 edge_3_4#3 edge_3_4#4 edge_4_1#0 edge_4_1#1 edge_4_1#2 ramp_1_NE edge_1_101#1 edge_1_101#2 edge_1_101#3 edge_1_101#4 edge_1_101#5"/>
    </vehicle>
    <vehicle id="68" depart="20.31">
        <route edges="edge_105_8#9 edge_8_9#0 edge_8_9#1 edge_8_9#2 edge_8_9#3 289430973#0"/>
    </vehicle>
    <vehicle id="69" depart="20.61">
        <route edges="edge_5_2#5 edge_2_1#0 edge_2_1#1 edge_2_1#2 edge_2_1#3 41205233#1 -41205233#1 edge_2_1#4 edge_2_1#5 edge_2_1#6 41205377 -41205375#0 -41205233#2"/>
    </vehicle>
    <vehicle id="70" depart="20.90">
        <route edges="edge_9_8#4 edge_8_105#0 edge_8_105#1 edge_105_8#7 edge_105_8#8 edge_105_8#9 edge_8_9#0 edge_8_9#1 edge_8_9#2 edge_8_9#3 289430973#0"/>
    </vehicle>
    <vehicle id="71" depart="21.20">
        <route edges="edge_107_3#2 ramp_3_NE edge_3_4#1 edge_3_4#2 41205403#1 41205403#2 edge_2_1#5 edge_2_1#6 41205377 -41205375#0 41205233#3 -41205233#4 -41205233#2 -41205233#1 edge_1_2#7 edge_1_2#8 edge_1_2#9 edge_1_2#10 edge_1_2#11 ramp_2_NW edge_2_103#1 edge_2_103#2 edge_2_103#3 edge_2_103#4"/>
    </vehicle>
    <vehicle id="72" depart="21.50">
        <route edges="edge_104_6#1 edge_6_5#0 edge_6_5#1 edge_6_5#2 edge_6_5#3 edge_6_5#4 edge_6_5#5 edge_6_5#6 edge_6_5#8 edge_6_5#9 edge_5_2#0 edge_5_2#1 edge_5_2#2 -130655020#7 -130655325#1 130655325#0 130655020#7 edge_2_5#2 edge_2_5#3 edge_110_5#0"/>
    </vehicle>
    <vehicle id="73" depart="21.80">
        <route edges="edge_101_1#5 edge_1_2#0 edge_1_2#1 41205287#1 41205287#2 -gneE66 32868406#2 -32868406#4 -41209074#1 -41209074#0 41209072#3 -41208868#0 41208868#0 41208868#1 -41212173#1 -41212224#0 -41212177#0 32868405#3 -32868405#3 41212177#0 41212224#0 41212224#1 -41212224#1 41212173#0 41208868#2 -41205375#7 -41208590#1 32868406#5 -32868406#5 41208590#1 41205375#5 41208868#3 edge_102_1#2 edge_102_1#3 32868406#9 gneE79"/>
    </vehicle>
    <vehicle id="74" depart="22.10">
        <route edges="edge_104_6#1 edge_6_5#0 edge_6_5#1 edge_6_5#2 edge_6_5#3 edge_6_5#4 edge_6_5#5 edge_6_5#6 edge_6_5#8 edge_6_5#9 edge_5_2#0 edge_5_2#1 edge_5_2#2 -130655020#7 -130655325#1 130655325#0 130655020#7 edge_2_5#2 edge_2_5#3 edge_110_5#0"/>
    </vehicle>
    <vehicle id="75" depart="22.40">
        <route edges="edge_3_2#5 edge_2_103#0 edge_2_103#1 edge_2_103#2 edge_2_103#3 edge_2_103#4"/>
    </vehicle>
    <vehicle id="76" depart="22.70">
        <route edges="edge_2_3#5 edge_3_4#0 edge_3_4#1 edge_3_4#2 edge_3_4#3 edge_3_4#4 edge_4_108#0 edge_108_4#6 edge_4_1#0 edge_4_1#1 edge_4_1#2 ramp_1_NE edge_1_101#1 edge_1_101#2 edge_1_101#3 edge_1_101#4 edge_1_101#5"/>
    </vehicle>
    <vehicle id="77" depart="22.99">
        <route edges="edge_3_4#4 edge_4_1#0 edge_1_4#3 edge_4_3#0 41205403#1 41205403#2 edge_2_1#5 edge_2_1#6 edge_1_2#4 edge_1_2#5 -41205403#2 -41205403#1 edge_3_4#3"/>
    </vehicle>
    <vehicle id="78" depart="23.29">
        <route edges="edge_3_2#5 edge_2_103#0 edge_2_103#1 edge_2_103#2 edge_2_103#3 edge_2_103#4"/>
    </vehicle>
    <vehicle id="79" depart="23.59">
        <route edges="edge_5_2#5 edge_2_1#0 edge_2_1#1 edge_2_1#2 edge_2_1#3 41205233#1 41205233#2 41205375#0 41205375#1 41205375#2 41205375#4 41205375#5 41208868#3 41208868#6 edge_1_101#5"/>
    </vehicle>
    <vehicle id="80" depart="23.89">
        <route edges="edge_3_9#5 edge_9_8#0 edge_9_8#1 edge_9_8#2 edge_9_8#3 ramp_8_NW edge_8_7#1 edge_8_7#2 edge_8_7#3 edge_7_6#0 edge_7_6#1 edge_7_6#2 289432764"/>
    </vehicle>
    <vehicle id="81" depart="24.19">
        <route edges="edge_103_2#4 ramp_2_SW edge_2_5#1 edge_2_5#2 edge_2_5#3 edge_110_5#0"/>
    </vehicle>
    <vehicle id="82" depart="24.49">
        <route edges="edge_3_2#5 edge_2_103#0 edge_2_103#1 edge_2_103#2 edge_2_103#3 edge_2_103#4"/>
    </vehicle>
    <vehicle id="83" depart="24.79">
        <route edges="edge_4_1#3 edge_1_102#0 edge_1_102#1 edge_1_102#2 -41208868#3 -41208868#2 41208868#2 -41205375#7 41205375#5 41205375#8 -41212224#1 -41212224#0 -41212177#0 32868405#3 -100317222#12 41208868#0 41208868#1 -41208868#1 -41209072#3 41209072#3 -41208868#0 100317222#11 -32868405#3 -32868405#2 -41205375#9 -41205375#8 41208868#3 41208868#6 edge_1_101#5"/>
    </vehicle>
    <vehicle id="84" depart="25.09">
        <route edges="edge_104_6#1 edge_6_5#0 edge_6_5#1 edge_6_5#2 edge_6_5#3 edge_6_5#4 edge_6_5#5 edge_6_5#6 edge_6_5#8 edge_5_6#1 edge_5_6#2 -130655214#5 -130655214#4 130655057#3 -130655020#5 -130655020#4 -130655171#3 -130655297 130655297 -130655171#2 130655214#2 130655139 130655020#5 130655020#6 130655020#7 edge_2_5#2 edge_2_5#3 edge_110_5#0"/>
    </vehicle>
    <vehicle id="85" depart="25.38">
        <route edges="edge_105_8#9 edge_8_9#0 edge_8_9#1 edge_8_9#2 edge_8_9#3 289430973#0"/>
    </vehicle>
    <vehicle id="86" depart="25.68">
        <route edges="edge_2_1#10 edge_1_101#0 edge_1_101#1 edge_1_101#2 edge_1_101#3 gneE79"/>
    </vehicle>
    <vehicle id="87" depart="25.98">
        <route edges="edge_104_6#1 edge_6_5#0 edge_6_5#1 edge_6_5#2 edge_6_5#3 edge_6_5#4 edge_6_5#5 edge_6_5#6 edge_6_5#8 edge_6_5#9 edge_110_5#0"/>
    </vehicle>
    <vehicle id="88" depart="26.28">
        <route edges="edge_1_2#12 edge_2_5#0 edge_2_5#1 edge_2_5#2 edge_2_5#3 edge_5_6#0 edge_5_6#1 edge_5_6#2 edge_5_6#3 edge_5_6#4 edge_6_104#0 edge_6_104#1"/>
    </vehicle>
    <vehicle id="89" depart="26.58">
        <route edges="edge_103_2#5 edge_2_1#0 edge_2_1#1 edge_1_2#8 edge_1_2#9 edge_1_2#10 edge_1_2#11 ramp_2_NW edge_2_103#1 edge_2_103#2 edge_2_103#3 edge_2_103#4"/>
    </vehicle>
    <vehicle id="90" depart="26.88">
        <route edges="edge_1_2#12 edge_2_5#0 edge_2_5#1 -130655020#7 -130655020#6 130655020#6 130655020#7 edge_2_5#2 edge_2_5#3 edge_110_5#0"/>
    </vehicle>
    <vehicle id="91" depart="27.18">
        <route edges="edge_109_6#3 edge_6_5#0 edge_6_5#1 edge_6_5#2 edge_6_5#3 edge_6_5#4 edge_5_6#3 edge_5_6#4 edge_6_104#0 edge_6_104#1"/>
    </vehicle>
    <vehicle id="92" depart="27.47">
        <route edges="edge_5_2#5 edge_2_1#0 edge_2_1#1 edge_2_1#2 edge_2_1#3 41205233#1 -41205233#1 edge_2_1#4 edge_2_1#5 edge_2_1#6 41205377 -41205375#0 41205233#3 41205233#5 41205233#6 100317222#11 -100317222#12 41208868#0 41208868#1 -41212173#1 41212224#1 -41205375#8 41205375#8 -41212224#1 -41212224#0 -41212177#0 -32868405#2 -41205375#9 41205375#9 32868405#1 32868405#3 -32868405#3 41212177#0 41212224#0 41212173#0 41208868#2 -41205375#7 -41205375#4 -32868406#5 -32868406#4 -41209074#1 41209074#1 32868406#2 32868406#5 32868406#6 32868406#9 gneE79"/>
    </vehicle>
    <vehicle id="93" depart="27.77">
        <route edges="edge_104_6#1 edge_6_5#0 edge_6_5#1 edge_6_5#2 edge_6_5#3 edge_6_5#4 -130655214#5 130655325#0 -130655020#6 130655020#6 130655020#7 edge_2_5#2 edge_2_5#3 edge_110_5#0"/>
    </vehicle>
    <vehicle id="94" depart="28.07">
        <route edges="edge_3_2#5 edge_2_103#0 edge_2_103#1 edge_2_103#2 edge_2_103#3 edge_2_103#4"/>
    </vehicle>
    <vehicle id="95" depart="28.37">
        <route edges="edge_106_8#14 edge_8_7#0 edge_8_7#1 edge_8_7#2 edge_8_7#3 edge_7_6#0 edge_7_6#1 edge_7_6#2 edge_7_6#3 edge_7_6#4 edge_7_6#5 ramp_6_NE edge_6_5#1 edge_6_5#2 edge_6_5#3 edge_6_5#4 -130655214#5 -130655214#4 -130655214#3 -130655214#2 130655214#2 130655139 -130655141 130655214#3 130655057#3 -130655020#5 -130655020#4 130655020#2 130655020#5 130655020#6 -130655325#1 130655214#5 edge_6_5#5 edge_6_5#6 edge_5_6#2 edge_5_6#3 edge_5_6#4 edge_6_104#0 edge_6_104#1"/>
    </vehicle>
    <vehicle id="96" depart="28.67">
        <route edges="edge_5_2#5 edge_2_1#0 edge_2_1#1 edge_2_1#2 edge_2_1#3 edge_2_1#4 edge_2_1#5 edge_2_1#6 edge_1_2#4 edge_1_2#5 -41205403#2 -41205403#1 edge_3_4#3 edge_3_4#4 edge_4_1#0 edge_4_1#1 edge_4_1#2 ramp_1_NE edge_1_101#1 edge_1_101#2 edge_1_101#3 edge_1_101#4 -41208868#6 -41208868#3 41205375#8 41205375#9 32868405#1 41212177#0 -41212177#0 -32868405#2 -32868405#0 32868405#0 -41205375#9 41212224#2 edge_1_102#4"/>
    </vehicle>
    <vehicle id="97" depart="28.97">
        <route edges="edge_101_1#5 edge_1_4#0 edge_1_4#1 edge_1_4#2 edge_1_4#3 edge_4_108#0 edge_4_108#1 edge_4_108#2 edge_108_4#4 -155378620#0 155378620#0 edge_108_4#5 edge_108_4#6 -32868409#2 -32868409#1 edge_2_1#7 edge_2_1#8 edge_2_1#9 ramp_1_SE"/>
    </vehicle>
    <vehicle id="98" depart="29.27">
        <route edges="edge_4_1#3 edge_1_102#0 edge_1_102#1 edge_1_102#2 -41208868#3 41208868#3 edge_1_102#3 edge_1_102#4"/>
    </vehicle>
    <vehicle id="99" depart="29.56">
        <route edges="edge_5_2#5 edge_2_103#0 edge_2_103#1 edge_2_103#2 edge_2_103#3 edge_2_103#4"/>
    </vehicle>
    <vehicle id="100" depart="29.86">
        <route edges="edge_2_1#10 edge_1_101#0 edge_1_101#1 edge_1_101#2 edge_1_101#3 edge_1_101#4 -41208868#6 edge_1_102#3 edge_1_102#4"/>
    </vehicle>
    <vehicle id="101" depart="30.16">
        <route edges="edge_105_8#9 edge_8_9#0 edge_8_9#1 edge_8_9#2 edge_8_9#3 289430973#0"/>
    </vehicle>
    <vehicle id="102" depart="30.46">
        <route edges="edge_2_3#5 edge_3_107#0 edge_3_107#1 edge_3_107#2"/>
    </vehicle>
    <vehicle id="103" depart="30.76">
        <route edges="edge_5_2#5 edge_2_1#0 edge_2_1#1 edge_2_1#2 edge_2_1#3 41205233#1 -41205233#1 edge_2_1#4 edge_2_1#5 edge_2_1#6 41205377 -41205375#0 -41205233#2"/>
    </vehicle>
    <vehicle id="104" depart="31.06">
        <route edges="edge_104_6#1 edge_6_5#0 edge_6_5#1 edge_6_5#2 edge_6_5#3 edge_6_5#4 -130655214#5 -130655278 -130655057#0 edge_6_109#2 -130655171#0 130655171#0 130655171#1 130655171#2 -130655297 130655195#1 -130655195#1 130655297 130655171#3 -130655020#1 -130655020#0 130655020#0 130655020#1 130655020#2 -130655020#4 -130655171#3 -130655171#2 130655214#2 130655139 130655020#5 130655020#6 130655020#7 edge_2_5#2 edge_2_5#3 edge_110_5#0"/>
    </vehicle>
    <vehicle id="105" depart="31.36">
        <route edges="edge_103_2#5 edge_2_1#0 edge_2_1#1 edge_2_1#2 edge_2_1#3 41205233#1 41205233#2 -41205233#2 -41205233#1 edge_2_1#4 edge_2_1#5 edge_2_1#6 edge_2_1#7 edge_2_1#8 41205287#1 41205287#2 41205274#0 41205233#6 -100317222#10 -41205233#5 41205233#5 -41205274#1 -41205287#3 41205375#2 32868406#6 32868406#9 gneE79"/>
    </vehicle>
    <vehicle id="106" depart="31.65">
        <route edges="edge_2_3#5 edge_3_107#0 edge_3_107#1 edge_3_107#2"/>
    </vehicle>
    <vehicle id="107" depart="31.95">