<?xml version="1.0" encoding="UTF-8"?>
<!-- generated on 2021-02-06 11:20:15.740743 by routeSampler.py UNKNOWN
  options: -r TrainingGym/Scenarios/VitalTri/VitalTriAM/VitalTriAM.rou.xml -t TrainingGym/Scenarios/VitalTri/VitalTriAM/VitalTriAM.turn.xml -o TrainingGym/Scenarios/VitalTri/VitalTriAM/VitalTriAM_Optimized.rou.xml <doubleminus>optimize full <doubleminus>write-flows probability
-->
<routes xmlns:xsi="http://www.w3.org/2001/XMLSchema-instance" xsi:noNamespaceSchemaLocation="http://sumo.dlr.de/xsd/routes_file.xsd">
<!-- begin="0.0" end="3400.0" -->
    <flow id="221" begin="0.00" end="3373.43" probability="0.10578550171966728">
        <route edges="edge_103_2#2 edge_103_2#3 edge_103_2#4 edge_103_2#5 edge_2_3#0 edge_2_3#1 edge_2_3#2 edge_2_3#3 edge_2_3#4 edge_2_3#5 edge_3_107#0 edge_3_107#1 edge_3_107#2"/>
    </flow>
    <flow id="62" begin="0.23" end="3395.90" probability="0.001974674085852652">
        <route edges="edge_101_1#3 edge_101_1#4 edge_101_1#5 edge_1_2#0 edge_1_2#1 edge_1_2#2 edge_1_2#3 32868409#1 32868409#2.1 32868409#2 edge_4_108#0 edge_108_4#6 edge_4_3#0 41205403#1 41205403#1.120 41205403#2 edge_2_1#5 edge_2_1#6 edge_2_1#7 edge_2_1#8 edge_2_1#9 edge_2_1#10 edge_1_102#0 edge_1_102#1 32868406#9 edge_101_1#3 edge_101_1#4 ramp_1_NW"/>
    </flow>
    <flow id="890" begin="0.25" end="3057.59" probability="0.012">
        <route edges="edge_5_110#0 edge_5_2#0 edge_5_2#1"/>
    </flow>
    <flow id="901" begin="0.26" end="3057.59" probability="0.0242">
        <route edges="edge_2_5#2 edge_2_5#3 edge_110_5#0"/>
    </flow>
    <flow id="903" begin="0.29" end="3357.59" probability="0.025019852549503535">
        <route edges="edge_7_6#4 edge_7_6#5 edge_7_6#6 edge_6_104#0 edge_6_104#1"/>
    </flow>
    <flow id="917" begin="0.50" end="2958.78" probability="0.0133333333333333">
        <route edges="edge_7_8#3 edge_7_8#4 edge_7_8#5 ramp_8_SW edge_8_105#1 139283095#1"/>
    </flow>
    <flow id="1074" begin="0.51" end="3330.00" probability="0.001501733290001464">
        <route edges="edge_9_8#3 ramp_8_NW edge_8_7#1 edge_8_7#2 edge_8_7#3 edge_7_6#0 edge_7_6#1 edge_7_6#2 edge_7_6#3 edge_7_6#4 edge_7_6#5 ramp_6_NE edge_6_5#1 edge_6_5#2 edge_6_5#3 edge_6_5#4 -130655214#5"/>
    </flow>
    <flow id="232" begin="0.77" end="3398.72" probability="0.10859469261391637">
        <route edges="edge_6_5#6 edge_6_5#8 edge_6_5#9 edge_5_2#0 edge_5_2#1"/>
    </flow>
    <flow id="234" begin="0.77" end="3398.72" probability="0.20222222222222222">
        <route edges="edge_104_6#0 edge_104_6#1 edge_6_5#0 edge_6_5#1 edge_6_5#2 edge_6_5#3 edge_6_5#4 edge_6_5#5 edge_6_5#6 edge_6_5#8 edge_6_5#9 edge_5_2#0 edge_5_2#1"/>
    </flow>
    <flow id="233" begin="1.02" end="3332.55" probability="0.01650893179358052">
        <route edges="edge_104_6#0 edge_104_6#1 edge_6_5#0 edge_6_5#1 edge_6_5#2 edge_6_5#3 edge_6_5#4 edge_6_5#5 edge_6_5#6 edge_6_5#8 edge_6_5#9 edge_5_2#0 edge_5_2#1 edge_5_2#2 edge_5_2#3 edge_5_2#4 ramp_2_SE edge_2_3#1 edge_2_3#2 edge_2_3#3 edge_2_3#4 edge_2_3#5 edge_3_107#0 edge_3_107#1 edge_3_107#2"/>
    </flow>
    <flow id="276" begin="1.28" end="2846.62" probability="0.0021087102345655694">
        <route edges="edge_106_8#9 edge_106_8#10 edge_106_8#11 edge_106_8#12 edge_106_8#13 edge_106_8#14 edge_8_105#0 edge_8_105#1 139283095#1"/>
    </flow>
    <flow id="660" begin="1.79" end="2967.97" probability="0.0013485332117345594">
        <route edges="edge_3_4#4 edge_4_1#0 edge_4_1#1 edge_4_1#2 ramp_1_NE edge_1_101#1 edge_1_101#2 edge_1_101#3 -32868406#9 edge_1_102#2 edge_1_102#3 41212224#5"/>
    </flow>
    <flow id="568" begin="2.04" end="3349.41" probability="0.005676097946430831">
        <route edges="edge_2_1#8 edge_2_1#9 edge_2_1#10 edge_1_102#0 edge_1_102#1 32868406#9 edge_1_101#4 edge_1_101#5 gneE81"/>
    </flow>
    <flow id="637" begin="2.30" end="3399.23" probability="0.032354323585156084974">
        <route edges="edge_3_2#2 edge_3_2#3 edge_3_2#4 edge_3_2#5 edge_2_103#0 edge_2_103#1 edge_2_103#2 edge_2_103#3 edge_2_103#4"/>
    </flow>
    <flow id="638" begin="2.30" end="3399.23" probability="0.0143585156084974">
        <route edges="edge_3_2#2 edge_3_2#3 edge_3_2#4 edge_3_2#5  edge_2_5#0 edge_2_5#1 -130655020#7"/>
    </flow>
    <flow id="270" begin="2.81" end="2850.45" probability="0.1001321503991789">
        <route edges="edge_105_8#5 edge_105_8#6 edge_105_8#7 edge_105_8#8 edge_105_8#9 edge_8_9#0 edge_8_9#1 edge_8_9#2 edge_8_9#3 289430973#0"/>
    </flow>
    <flow id="321" begin="3.32" end="3290.65" probability="0.0018251889237863332">
        <route edges="edge_107_3#0 edge_107_3#1 edge_107_3#2 ramp_3_NE edge_3_4#1 edge_3_4#2 edge_3_4#3 edge_3_4#4 edge_4_1#0 edge_4_1#1 edge_4_1#2 ramp_1_NE edge_1_101#1 edge_1_101#2 edge_1_101#3 edge_1_101#4 -41208868#6"/>
    </flow>
    <flow id="323" begin="3.58" end="3091.82" probability="0.0246666666666667">
        <route edges="-41205403#1.121 edge_4_3#1 ramp_3_NW edge_3_2#1 edge_3_2#2 edge_3_2#3 edge_3_2#4"/>
    </flow>
    <flow id="558" begin="3.58" end="3391.82" probability="0.003020749243754236">
        <route edges="edge_2_1#8 edge_2_1#9 edge_2_1#10 edge_1_101#0 edge_1_101#1 edge_1_101#2 edge_1_101#3 edge_1_101#4 edge_1_101#5 -41212224#5"/>
    </flow>
    <flow id="540" begin="3.58" end="3391.82" probability="0.003020749243754236">
        <route edges="-41205377 edge_2_1#7 edge_2_1#8 edge_2_1#9 ramp_1_SE edge_1_4#1 edge_1_4#2 edge_1_4#3 -32868409#2 -gneE82"/>
    </flow>
    <flow id="474" begin="3.83" end="3393.61" probability="0.10000647289367587">
        <route edges="edge_1_2#7 edge_1_2#8 edge_1_2#9 edge_1_2#10 edge_1_2#11 edge_1_2#12 edge_2_5#0 edge_2_5#1 edge_2_5#2 edge_2_5#3 edge_5_6#0 edge_5_6#1 edge_5_6#2 edge_5_6#3 edge_5_6#4 edge_6_104#0 edge_6_104#1"/>
    </flow>
    <flow id="823" begin="4.09" end="3395.66" probability="0.08037288135597193">
        <route edges="edge_5_2#2 edge_5_2#3 edge_5_2#4 edge_5_2#5 edge_2_1#0 edge_2_1#1 edge_2_1#2 edge_2_1#3 edge_2_1#4 -41205403#2 -41205403#1 -41205403#1.121 edge_3_4#3 edge_3_4#4 edge_4_1#0 776672503#0"/>
    </flow>
    <flow id="572" begin="4.60" end="3362.44" probability="0.0056583911811714915">
        <route edges="edge_2_1#8 edge_2_1#9 edge_2_1#10 edge_1_102#0 edge_1_102#1 edge_1_102#2 41208868#6"/>
    </flow>
    <flow id="471" begin="4.85" end="3384.16" probability="0.006214294291090713">
        <route edges="edge_1_2#7 edge_1_2#8 edge_1_2#9 edge_1_2#10 edge_1_2#11 edge_1_2#12 edge_2_5#0 edge_2_5#1"/>
    </flow>
    <flow id="922" begin="5.11" end="2495.58" probability="0.0020076516449831303">
        <route edges="edge_7_8#3 edge_7_8#4 edge_7_8#5 edge_7_8#6 edge_8_106#0 edge_8_106#1 edge_8_106#2 edge_8_106#3 -139283399 edge_8_106#5 edge_8_106#6 edge_8_106#7 139283375#1"/>
    </flow>
    <flow id="867" begin="5.62" end="3394.63" probability="0.1448798917984463">
        <route edges="edge_5_2#2 edge_5_2#3 edge_5_2#4 edge_5_2#5 edge_2_103#0 edge_2_103#1 edge_2_103#2 edge_2_103#3 edge_2_103#4"/>
    </flow>
    <flow id="782" begin="5.88" end="3324.38" probability="0.018683139126777153">
        <route edges="edge_4_1#1 edge_4_1#2 edge_4_1#3 edge_1_102#0 edge_1_102#1 edge_1_102#2 edge_1_102#3 -41212224#2"/>
    </flow>
    <flow id="263" begin="6.64" end="2738.55" probability="0.0029283588493851016">
        <route edges="edge_105_8#5 edge_105_8#6 edge_105_8#7 edge_105_8#8 edge_105_8#9 edge_8_7#0 edge_8_7#1 edge_8_7#2 edge_8_7#3 edge_7_6#0 edge_7_6#1 edge_7_6#2 edge_7_6#3 edge_7_6#4 edge_7_6#5 ramp_6_NE edge_6_5#1 edge_6_5#2 edge_6_5#3 edge_6_5#4 edge_6_5#5 edge_6_5#6 edge_6_5#8 edge_6_5#9 edge_5_2#0 edge_5_2#1"/>
    </flow>
    <flow id="778" begin="6.90" end="3350.69" probability="0.018541816482098832">
        <route edges="edge_4_1#1 edge_4_1#2 edge_4_1#3 edge_1_102#0 edge_1_102#1 32868406#9 edge_1_101#4 gneE80"/>
    </flow>
    <flow id="784" begin="7.15" end="3385.69" probability="0.018351126294442743">
        <route edges="edge_4_1#1 edge_4_1#2 edge_4_1#3 edge_1_102#0 edge_1_102#1 edge_1_102#2 edge_1_102#3 edge_1_102#4"/>
    </flow>
    <flow id="776" begin="7.66" end="3386.20" probability="0.018351126294442747">
        <route edges="edge_4_1#1 edge_4_1#2 edge_4_1#3 edge_1_102#0 edge_1_102#1 32868406#9 edge_1_101#4 edge_1_101#5 edge_1_101#5.164"/>
    </flow>
    <flow id="775" begin="8.18" end="3394.12" probability="0.018310970657036987">
        <route edges="edge_4_1#1 edge_4_1#2 edge_4_1#3 edge_1_102#0 edge_1_102#1 32868406#9 edge_1_101#4 edge_1_101#5 -41212224#5"/>
    </flow>
    <flow id="854" begin="8.43" end="3390.55" probability="0.107514410387214874">
        <route edges="edge_5_2#2 edge_5_2#3 edge_5_2#4 edge_5_2#5 edge_2_1#0 edge_2_1#1 edge_2_1#2 edge_2_1#3 edge_2_1#4 edge_2_1#5"/>
    </flow>
    <flow id="205" begin="8.94" end="3357.08" probability="0.06451349956237501">
        <route edges="edge_103_2#2 edge_103_2#3 edge_103_2#4 edge_103_2#5 edge_2_1#0 edge_2_1#1 edge_2_1#2 edge_2_1#3 edge_2_1#4 -41205403#2 -41205403#1 -41205403#1.121 edge_4_3#1 edge_4_3#2 edge_3_9#0 edge_3_9#1 edge_3_9#2 289430971#0"/>
    </flow>
    <flow id="1401" begin="8.95" end="3357.08" probability="0.06451349956237501">
        <route edges="edge_9_3#1 edge_9_3#2 edge_9_3#3 edge_9_3#4 edge_9_3#5 edge_3_4#0 edge_3_4#1 edge_3_4#2 edge_3_4#3 edge_3_4#4 edge_4_108#0 edge_4_108#1 155378620#1"/>
    </flow>
    <flow id="322" begin="9.96" end="2387.77" probability="0.002523337905055754">
        <route edges="edge_107_3#0 edge_107_3#1 edge_107_3#2 ramp_3_NE edge_3_4#1 edge_3_4#2 edge_3_4#3 edge_3_4#4 edge_4_1#0 edge_4_1#1 edge_4_1#2 ramp_1_NE edge_1_101#1 edge_1_101#2 edge_1_101#3 edge_1_101#4 edge_1_101#5 -41212224#5"/>
    </flow>
    <flow id="272" begin="10.26" end="3291.63" probability="0.23470577803741541">
        <route edges="edge_105_8#5 edge_105_8#6 edge_105_8#7 edge_105_8#8 edge_105_8#9 edge_8_9#0 edge_8_9#1 edge_8_9#2 edge_8_9#3 edge_8_9#4 edge_8_9#5 edge_9_3#0"/>
    </flow>
    <flow id="651" begin="10.22" end="1580.94" probability="0.002546595736537742">
        <route edges="edge_3_4#4 edge_4_1#0 edge_4_1#1 edge_4_1#2 ramp_1_NE edge_1_101#1 edge_1_101#2 edge_1_101#3 -32868406#9 -32868406#6"/>
    </flow>
    <flow id="649" begin="10.28" end="3231.35" probability="0.125375802659233693">
        <route edges="edge_3_9#3 edge_3_9#4 edge_3_9#5 edge_9_8#0 edge_9_8#1 289420918#0"/>
    </flow>
    <flow id="553" begin="10.47" end="3373.17" probability="0.003195652368231876">
        <route edges="edge_2_1#8 edge_2_1#9 edge_2_1#10 edge_1_101#0 edge_1_101#1 edge_1_101#2 edge_1_101#3 -32868406#9 edge_1_102#2 41208868#6"/>
    </flow>
    <flow id="552" begin="11.24" end="3297.81" probability="0.023732989464448406">
        <route edges="edge_2_1#8 edge_2_1#9 edge_2_1#10 edge_1_101#0 edge_1_101#1 edge_1_101#2 edge_1_101#3 -32868406#9 edge_1_102#2 -41208868#3"/>
    </flow>
    <flow id="868" begin="11.50" end="3158.57" probability="0.011756969714337479">
        <route edges="edge_5_6#4 edge_6_104#0 edge_6_104#1"/>
    </flow>
    <flow id="561" begin="11.75" end="3399.74" probability="0.023022485217605707">
        <route edges="edge_2_1#8 edge_2_1#9 edge_2_1#10 edge_1_101#0 edge_1_101#1 edge_1_101#2 edge_1_101#3 edge_1_101#4 gneE80"/>
    </flow>
    <flow id="560" begin="12.01" end="3298.32" probability="0.023734834523102256">
        <route edges="edge_2_1#8 edge_2_1#9 edge_2_1#10 edge_1_101#0 edge_1_101#1 edge_1_101#2 edge_1_101#3 edge_1_101#4 edge_1_101#5 gneE81"/>
    </flow>
    <flow id="295" begin="12.77" end="3379.31" probability="0.038021329500163986">
        <route edges="edge_106_8#9 edge_106_8#10 edge_106_8#11 edge_106_8#12 edge_106_8#13 edge_106_8#14 edge_8_9#0 edge_8_9#1 edge_8_9#2 edge_8_9#3 edge_8_9#4 edge_8_9#5 edge_9_3#0"/>
    </flow>
    <flow id="1402" begin="12.78" end="3379.31" probability="0.038021329500163986">
        <route edges="edge_9_3#1 edge_9_3#2 edge_9_3#3 edge_9_3#4 edge_9_3#5 edge_3_4#0 edge_3_4#1 edge_3_4#2 edge_3_4#3 edge_3_4#4 edge_4_1#0 776672503#0"/>
    </flow>
    <flow id="814" begin="13.29" end="3370.87" probability="0.02650711235643937">
        <route edges="edge_4_3#1 edge_4_3#2 edge_3_107#0 edge_3_107#1 edge_3_107#2"/>
    </flow>
    <flow id="817" begin="14.05" end="3370.62" probability="0.0065543148299068805">
        <route edges="edge_4_3#1 edge_4_3#2 edge_3_9#0 edge_3_9#1 edge_3_9#2 edge_3_9#3 edge_3_9#4 ramp_9_NW gneE8"/>
    </flow>
    <flow id="314" begin="14.31" end="3338.94" probability="0.03992591119288206">
        <route edges="edge_107_3#0 edge_107_3#1 edge_107_3#2 ramp_3_NE edge_3_4#1 edge_3_4#2 edge_3_4#3 edge_3_4#4 edge_4_1#0 776672503#0"/>
    </flow>
    <flow id="313" begin="14.31" end="3008.94" probability="0.075666666667">
        <route edges="edge_3_4#3 edge_3_4#4 edge_4_1#0 776672503#0"/>
    </flow>
    <flow id="562" begin="14.82" end="3327.19" probability="0.02354810462558163">
        <route edges="edge_2_1#8 edge_2_1#9 edge_2_1#10 edge_1_101#0 edge_1_101#1 edge_1_101#2 edge_1_101#3 gneE79"/>
    </flow>
    <flow id="74" begin="15.07" end="3309.05" probability="0.025197530807877448">
        <route edges="edge_101_1#3 edge_101_1#4 edge_101_1#5 edge_1_2#0 edge_1_2#1 edge_1_2#2 edge_1_2#3 edge_1_2#4 edge_1_2#5 -41205403#2 -41205403#1 -41205403#1.121 edge_3_4#3 edge_3_4#4 edge_4_1#0 776672503#0"/>
    </flow>
    <flow id="1073" begin="16.86" end="3380.84" probability="0.0020808706257628134">
        <route edges="edge_9_8#3 ramp_8_NW edge_8_7#1 edge_8_7#2 edge_8_7#3 edge_7_6#0 edge_7_6#1 edge_7_6#2 289432764"/>
    </flow>
    <flow id="947" begin="17.12" end="3387.74" probability="0.12375132088766125">
        <route edges="289430974 edge_8_9#5 edge_9_3#0"/>
    </flow>
    <flow id="472" begin="17.37" end="3383.90" probability="0.00623787437112066">
        <route edges="edge_1_2#7 edge_1_2#8 edge_1_2#9 edge_1_2#10 edge_1_2#11 edge_1_2#12 edge_2_5#0 edge_2_5#1 edge_2_5#2 edge_2_5#3 edge_110_5#0"/>
    </flow>
    <flow id="111" begin="17.88" end="3328.46" probability="0.0051350517055114165">
        <route edges="edge_101_1#3 edge_101_1#4 edge_101_1#5 edge_1_4#0 edge_1_4#1 edge_1_4#2 edge_1_4#3 edge_4_3#0 41205403#1 41205403#1.120 41205403#2 edge_2_1#5 edge_2_1#6 edge_2_1#7 edge_2_1#8"/>
    </flow>
    <flow id="176" begin="18.39" end="2817.24" probability="0.007145810400838769">
        <route edges="edge_102_1#3 edge_102_1#4 edge_102_1#5 edge_102_1#6 edge_1_4#0 edge_1_4#1 edge_1_4#2 edge_1_4#3 edge_4_3#0 41205403#1 -gneE84"/>
    </flow>
    <flow id="936" begin="18.65" end="2880.09" probability="0.005591596638656414">
        <route edges="edge_8_7#3 edge_7_6#0 edge_7_6#1 458400946"/>
    </flow>
    <flow id="108" begin="18.91" end="3076.81" probability="0.007848510613203403">
        <route edges="edge_101_1#3 edge_101_1#4 edge_101_1#5 edge_1_4#0 edge_1_4#1 edge_1_4#2 edge_1_4#3 edge_4_3#0 41205403#1 41205403#1.120 41205403#2 edge_1_2#6 edge_1_2#7 edge_1_2#8 edge_1_2#9 edge_1_2#10 edge_1_2#11 ramp_2_NW edge_2_103#1 edge_2_103#2 edge_2_103#3 edge_2_103#4"/>
    </flow>
    <flow id="258" begin="19.42" end="3256.93" probability="0.0012355169340466459">
        <route edges="edge_105_8#5 edge_105_8#6 edge_105_8#7 edge_105_8#8 edge_105_8#9 edge_8_7#0 edge_8_7#1 edge_8_7#2 edge_8_7#3 32868040"/>
    </flow>
    <flow id="840" begin="19.93" end="3390.04" probability="0.01958394092229177">
        <route edges="edge_5_2#2 edge_5_2#3 edge_5_2#4 edge_5_2#5 edge_2_1#0 edge_2_1#1 edge_2_1#2 edge_2_1#3 edge_2_1#4 edge_2_1#5 edge_2_1#6 32868409#1 32868409#2.1 -gneE83"/>
    </flow>
    <flow id="153" begin="20.69" end="680.10" probability="0.00303302413565176">
        <route edges="edge_102_1#3 edge_102_1#4 edge_102_1#5 edge_102_1#6 edge_1_101#0 edge_1_101#1 edge_1_101#2 edge_1_101#3 gneE79"/>
    </flow>
    <flow id="110" begin="21.46" end="3346.86" probability="0.005112169637370709">
        <route edges="edge_101_1#3 edge_101_1#4 edge_101_1#5 edge_1_4#0 edge_1_4#1 edge_1_4#2 edge_1_4#3 edge_4_3#0 41205403#1 -gneE84"/>
    </flow>
    <flow id="347" begin="22.99" end="3328.21" probability="0.30091740061565678">
        <route edges="edge_107_3#1 edge_107_3#2 edge_107_3#3 edge_3_2#0 edge_3_2#1 edge_3_2#2 edge_3_2#3 edge_3_2#4 edge_3_2#5 edge_2_103#0 edge_2_103#1 edge_2_103#2 edge_2_103#3 edge_2_103#4"/>
    </flow>
    <flow id="154" begin="23.76" end="3392.34" probability="0.026420665194412413">
        <route edges="edge_102_1#3 edge_102_1#4 edge_102_1#5 edge_102_1#6 edge_1_4#0 edge_1_4#1 edge_1_4#2 776672503#0"/>
    </flow>
    <flow id="957" begin="24.53" end="3398.47" probability="0.07280094609404109">
        <route edges="edge_9_3#2 edge_9_3#3 edge_9_3#4 edge_9_3#5 edge_3_2#0 edge_3_2#1 edge_3_2#2 edge_3_2#3 edge_3_2#4 edge_3_2#5 edge_2_103#0 edge_2_103#1 edge_2_103#2 edge_2_103#3 edge_2_103#4"/>
    </flow>
    <flow id="779" begin="24.78" end="3393.36" probability="0.018405407214085057">
        <route edges="edge_4_1#1 edge_4_1#2 edge_4_1#3 edge_1_102#0 edge_1_102#1 32868406#9 gneE79"/>
    </flow>
    <flow id="151" begin="25.29" end="143.58" probability="0.016907635624444375">
        <route edges="edge_102_1#3 edge_102_1#4 edge_102_1#5 edge_102_1#6 edge_1_101#0 edge_1_101#1 edge_1_101#2 edge_1_101#3 edge_1_101#4 edge_1_101#5 gneE81"/>
    </flow>
    <flow id="897" begin="25.55" end="2831.54" probability="0.0014255185821941">
        <route edges="edge_7_6#5 ramp_6_NE edge_6_5#1 edge_6_5#2 edge_6_5#3 edge_6_5#4 -130655214#5"/>
    </flow>
    <flow id="285" begin="26.31" end="3013.20" probability="0.006361152621172903">
        <route edges="edge_106_8#9 edge_106_8#10 edge_106_8#11 edge_106_8#12 edge_106_8#13 edge_106_8#14 edge_8_7#0 edge_8_7#1 edge_8_7#2 289432755"/>
    </flow>
    <flow id="554" begin="26.83" end="3363.98" probability="0.023373233537794205">
        <route edges="edge_2_1#8 edge_2_1#9 edge_2_1#10 edge_1_101#0 edge_1_101#1 edge_1_101#2 edge_1_101#3 -32868406#9 edge_1_102#2 edge_1_102#3 -41212224#2"/>
    </flow>
    <flow id="107" begin="27.59" end="3230.61" probability="0.005307489830104164">
        <route edges="edge_101_1#3 edge_101_1#4 edge_101_1#5 edge_1_4#0 edge_1_4#1 edge_1_4#2 edge_1_4#3 edge_4_3#0 41205403#1 -gneE84"/>
    </flow>
    <flow id="242" begin="28.36" end="3374.20" probability="0.01016188149053413">
        <route edges="edge_104_6#0 edge_104_6#1 edge_6_7#0 edge_6_7#1 edge_6_7#2 edge_6_7#3 edge_6_7#4 edge_7_8#0 edge_7_8#1 edge_7_8#2 289432755"/>
    </flow>
    <flow id="136" begin="28.61" end="3177.47" probability="0.0015878773416063783">
        <route edges="edge_102_1#4 ramp_1_SW edge_1_2#1 edge_1_2#2 edge_1_2#3 41205377"/>
    </flow>
    <flow id="302" begin="29.13" end="3323.10" probability="0.00728603300468748">
        <route edges="edge_107_3#0 edge_107_3#1 edge_107_3#2 ramp_3_NE edge_3_4#1 edge_3_4#2"/>
    </flow>
    <flow id="771" begin="29.64" end="3076.04" probability="0.0013130216863668734">
        <route edges="edge_4_1#2 ramp_1_NE edge_1_101#1 edge_1_101#2 edge_1_101#3 gneE79"/>
    </flow>
    <flow id="253" begin="29.89" end="3358.61" probability="0.0015020790724767222">
        <route edges="edge_105_8#5 edge_105_8#6 edge_105_8#7 edge_105_8#8 edge_105_8#9 edge_8_106#0 edge_8_106#1 edge_8_106#2 -139284054#6"/>
    </flow>
    <flow id="54" begin="30.15" end="3389.78" probability="0.015180228136886157">
        <route edges="edge_101_1#3 edge_101_1#4 edge_101_1#5 edge_1_2#0 edge_1_2#1 41205287#1"/>
    </flow>
    <flow id="559" begin="30.91" end="3325.91" probability="0.023672263043395064">
        <route edges="edge_2_1#8 edge_2_1#9 edge_2_1#10 edge_1_101#0 edge_1_101#1 edge_1_101#2 edge_1_101#3 edge_1_101#4 edge_1_101#5 edge_1_101#5.164"/>
    </flow>
    <flow id="89" begin="31.17" end="3392.59" probability="0.08412260974925533">
        <route edges="edge_101_1#3 edge_101_1#4 edge_101_1#5 edge_1_2#0 edge_1_2#1 edge_1_2#2 edge_1_2#3 edge_1_2#4 edge_1_2#5 edge_1_2#6 edge_1_2#7 edge_1_2#8 edge_1_2#9 edge_1_2#10 edge_1_2#11 ramp_2_NW edge_2_103#1 edge_2_103#2 edge_2_103#3 edge_2_103#4"/>
    </flow>
    <flow id="128" begin="31.42" end="2624.86" probability="0.0019279468264502286">
        <route edges="edge_102_1#4 ramp_1_SW edge_1_2#1 edge_1_2#2 edge_1_2#3 32868409#1 32868409#2.1 -gneE83"/>
    </flow>
    <flow id="830" begin="31.94" end="2491.24" probability="0.00243971596533915">
        <route edges="edge_5_2#2 edge_5_2#3 edge_5_2#4 edge_5_2#5 edge_2_1#0 edge_2_1#1 edge_2_1#2 edge_2_1#3 edge_2_1#4 -41205403#2 -41205403#1 -41205403#1.121 edge_3_4#3 edge_3_4#4 edge_4_1#0 edge_4_1#1 edge_4_1#2 ramp_1_NE edge_1_101#1 edge_1_101#2 edge_1_101#3 edge_1_101#4 gneE80"/>
    </flow>
    <flow id="794" begin="32.45" end="2467.99" probability="0.0024635168239121466">
        <route edges="edge_4_1#1 edge_4_1#2 edge_4_1#3 edge_1_2#0 edge_1_2#1 edge_1_2#2 edge_1_2#3 edge_1_2#4 edge_1_2#5 edge_1_2#6 41205233#1 41205233#2"/>
    </flow>
    <flow id="287" begin="32.96" end="3187.69" probability="0.004898245012294083">
        <route edges="edge_106_8#9 edge_106_8#10 edge_106_8#11 edge_106_8#12 edge_106_8#13 edge_106_8#14 edge_8_7#0 edge_8_7#1 edge_8_7#2 edge_8_7#3 edge_7_6#0 edge_7_6#1 458400946"/>
    </flow>
    <flow id="196" begin="33.47" end="3265.36" probability="0.004022413392235351">
        <route edges="edge_103_2#4 ramp_2_SW edge_2_5#1 edge_2_5#2 edge_2_5#3 edge_5_6#0 edge_5_6#1 edge_5_6#2 -130655214#5"/>
    </flow>
    <flow id="460" begin="33.72" end="3210.43" probability="0.005666247196966016">
        <route edges="edge_109_6#1 edge_109_6#2 edge_109_6#3 edge_6_7#0 -289433295#1"/>
    </flow>
    <flow id="545" begin="33.98" end="2811.62" probability="0.005040254512401773">
        <route edges="edge_2_1#8 edge_2_1#9 edge_2_1#10 edge_1_101#0 edge_1_101#1 edge_1_101#2 edge_1_101#3 -32868406#9 edge_102_1#4 ramp_1_SW edge_1_2#1 edge_1_2#2 edge_1_2#3 edge_1_2#4 edge_1_2#5 -41205403#2 -41205403#1 -41205403#1.121 edge_3_4#3 edge_3_4#4 edge_4_1#0 776672503#0"/>
    </flow>
    <flow id="260" begin="34.24" end="3291.16" probability="0.016273002454829735">
        <route edges="edge_105_8#5 edge_105_8#6 edge_105_8#7 edge_105_8#8 edge_105_8#9 edge_8_7#0 edge_8_7#1 edge_8_7#2 edge_8_7#3 edge_7_6#0 edge_7_6#1 edge_7_6#2 289432764"/>
    </flow>
    <flow id="73" begin="34.49" end="3391.57" probability="0.015191780821921849">
        <route edges="edge_101_1#3 edge_101_1#4 edge_101_1#5 edge_1_2#0 edge_1_2#1 edge_1_2#2 edge_1_2#3 41205377"/>
    </flow>
    <flow id="90" begin="34.75" end="3192.55" probability="0.014567104511710985">
        <route edges="edge_101_1#3 edge_101_1#4 edge_101_1#5 edge_1_4#0 edge_1_4#1 edge_1_4#2 776672503#0"/>
    </flow>
    <flow id="1084" begin="35.51" end="3353.76" probability="0.01054774543017358">
        <route edges="edge_9_8#2 edge_9_8#3 edge_9_8#4 edge_8_105#0 edge_8_105#1 edge_8_105#2 edge_8_105#3 edge_8_105#4 edge_8_105#5 -139283287#1"/>
    </flow>
    <flow id="772" begin="37.05" end="3382.88" probability="0.018530489776856392">
        <route edges="edge_4_1#1 edge_4_1#2 edge_4_1#3 edge_1_102#0 edge_1_102#1 -32868406#6"/>
    </flow>
    <flow id="556" begin="38.32" end="3127.40" probability="0.025250283390179123">
        <route edges="edge_2_1#8 edge_2_1#9 edge_2_1#10 edge_1_101#0 edge_1_101#1 edge_1_101#2 edge_1_101#3 -32868406#9 edge_1_102#2 edge_1_102#3 edge_1_102#4"/>
    </flow>
    <flow id="225" begin="39.60" end="3286.31" probability="0.020944287063272456">
        <route edges="edge_103_2#2 edge_103_2#3 edge_103_2#4 edge_103_2#5 edge_2_3#0 edge_2_3#1 edge_2_3#2 edge_2_3#3 edge_2_3#4 ramp_3_SW edge_3_9#1 edge_3_9#2 289430971#0"/>
    </flow>
    <flow id="1403" begin="39.61" end="3286.31" probability="0.020944287063272456">
        <route edges="edge_9_3#1 edge_9_3#2 edge_9_3#3 edge_9_3#4 edge_9_3#5 edge_3_4#0 edge_3_4#1 edge_3_4#2"/>
    </flow>
    <flow id="226" begin="39.60" end="3046.31" probability="0.08">
        <route edges="edge_103_2#2 edge_103_2#3 edge_103_2#4 edge_103_2#5 edge_2_3#0 edge_2_3#1"/>
    </flow>
    <flow id="557" begin="40.62" end="3316.71" probability="0.023808872843380326">
        <route edges="edge_2_1#8 edge_2_1#9 edge_2_1#10 edge_1_101#0 edge_1_101#1 edge_1_101#2 edge_1_101#3 edge_1_101#4 -41208868#6"/>
    </flow>
    <flow id="201" begin="43.18" end="2735.48" probability="0.0014857155616091727">
        <route edges="edge_103_2#2 edge_103_2#3 edge_103_2#4 edge_103_2#5 edge_2_1#0 edge_2_1#1 edge_2_1#2 edge_2_1#3 edge_2_1#4 -41205403#2 -41205403#1 -41205403#1.121 edge_3_4#3 edge_3_4#4 edge_4_1#0 edge_4_1#1 edge_4_1#2 ramp_1_NE edge_1_101#1 edge_1_101#2 edge_1_101#3 edge_1_101#4 -41208868#6"/>
    </flow>
    <flow id="318" begin="45.99" end="3243.64" probability="0.0018763747109586638">
        <route edges="edge_107_3#0 edge_107_3#1 edge_107_3#2 ramp_3_NE edge_3_4#1 edge_3_4#2 edge_3_4#3 edge_3_4#4 edge_4_1#0 edge_4_1#1 edge_4_1#2 ramp_1_NE edge_1_101#1 edge_1_101#2 edge_1_101#3 -32868406#9 edge_1_102#2 41208868#6"/>
    </flow>
    <flow id="431" begin="46.24" end="3243.90" probability="0.003440020303424217">
        <route edges="edge_108_4#6 edge_4_3#0 41205403#1 -gneE84"/>
    </flow>
    <flow id="541" begin="46.50" end="3345.33" probability="0.023644762737815014">
        <route edges="edge_2_1#8 edge_2_1#9 edge_2_1#10 edge_1_101#0 edge_1_101#1 edge_1_101#2 edge_1_101#3 -32868406#9 -32868406#6"/>
    </flow>
    <flow id="780" begin="47.26" end="3248.75" probability="0.019365995859684473">
        <route edges="edge_4_1#1 edge_4_1#2 edge_4_1#3 edge_1_102#0 edge_1_102#1 edge_1_102#2 -41208868#3"/>
    </flow>
    <flow id="476" begin="47.52" end="2975.89" probability="0.009220134049084675">
        <route edges="edge_1_2#7 edge_1_2#8 edge_1_2#9 edge_1_2#10 edge_1_2#11 edge_1_2#12 edge_2_5#0 edge_2_5#1 edge_2_5#2 edge_2_5#3 edge_5_6#0 edge_5_6#1 edge_5_6#2 edge_5_6#3 edge_5_6#4 edge_6_7#0 edge_6_7#1 edge_6_7#2 edge_6_7#3 edge_6_7#4 edge_7_8#0 edge_7_8#1 edge_7_8#2 289432755"/>
    </flow>
    <flow id="781" begin="48.03" end="3337.41" probability="0.018848566533414348">
        <route edges="edge_4_1#1 edge_4_1#2 edge_4_1#3 edge_1_102#0 edge_1_102#1 edge_1_102#2 41208868#6"/>
    </flow>
    <flow id="1086" begin="48.80" end="3399.49" probability="0.010445605615485748">
        <route edges="edge_9_8#2 edge_9_8#3 edge_9_8#4 edge_8_105#0 edge_8_105#1 edge_8_105#2 edge_8_105#3 edge_8_105#4 edge_8_105#5 edge_8_105#6 edge_8_105#7 139284193#2"/>
    </flow>
    <flow id="231" begin="49.05" end="3386.97" probability="0.11054798406162193">
        <route edges="edge_104_6#0 edge_104_6#1 edge_6_5#0 edge_6_5#1 edge_6_5#2 edge_6_5#3 edge_6_5#4 edge_6_5#5 edge_6_5#6 edge_6_5#8 edge_6_5#9 edge_110_5#0"/>
    </flow>
    <flow id="227" begin="49.05" end="3086.97" probability="0.0756666666677">
        <route edges="edge_6_5#6 edge_6_5#8 edge_6_5#9 edge_110_5#0"/>
    </flow>
    <flow id="299" begin="50.33" end="3192.29" probability="0.0000011638544765769534">
        <route edges="edge_107_3#0 edge_107_3#1 edge_107_3#2 ramp_3_NE edge_3_4#1 edge_3_4#2"/>
    </flow>
    <flow id="75" begin="50.59" end="3025.71" probability="0.0020167201272956376">
        <route edges="edge_101_1#3 edge_101_1#4 edge_101_1#5 edge_1_2#0 edge_1_2#1 edge_1_2#2 edge_1_2#3 edge_1_2#4 edge_1_2#5 -41205403#2 -41205403#1 -41205403#1.121 edge_3_4#3 edge_3_4#4 edge_4_1#0 edge_4_1#1 edge_4_1#2 ramp_1_NE edge_1_101#1 edge_1_101#2 edge_1_101#3 -32868406#9 -32868406#6"/>
    </flow>
    <flow id="346" begin="50.84" end="3291.93" probability="0.0012341534438151682">
        <route edges="edge_107_3#0 edge_107_3#1 edge_107_3#2 ramp_3_NE edge_3_4#1 edge_3_4#2 edge_3_4#3 edge_3_4#4 edge_4_3#0 edge_4_3#1 edge_4_3#2 edge_3_9#0 edge_3_9#1 edge_3_9#2 edge_3_9#3 edge_3_9#4 ramp_9_NW gneE8"/>
    </flow>
    <flow id="566" begin="51.61" end="3384.42" probability="0.005700899600930428">
        <route edges="edge_2_1#8 edge_2_1#9 edge_2_1#10 edge_1_102#0 edge_1_102#1 32868406#9 edge_1_101#4 edge_1_101#5 -41212224#5"/>
    </flow>
    <flow id="929" begin="52.37" end="3377.01" probability="0.002707066688967859">
        <route edges="edge_7_8#3 edge_7_8#4 edge_7_8#5 edge_7_8#6 edge_8_9#0 edge_8_9#1 edge_8_9#2 edge_8_9#3 289430973#0"/>
    </flow>
    <flow id="1068" begin="52.63" end="3216.31" probability="0.0018965279724104445">
        <route edges="edge_9_8#3 ramp_8_NW edge_8_7#1 edge_8_7#2 -38692932#1"/>
    </flow>
    <flow id="855" begin="53.40" end="3273.02" probability="0.020499267156478845">
        <route edges="edge_5_2#2 edge_5_2#3 edge_5_2#4 edge_5_2#5 edge_2_1#0 edge_2_1#1 edge_2_1#2 edge_2_1#3 edge_2_1#4 edge_2_1#5 edge_2_1#6 edge_2_1#7 edge_2_1#8"/>
    </flow>
    <flow id="70" begin="53.91" end="273.11" probability="0.009123817359111521">
        <route edges="edge_101_1#3 edge_101_1#4 edge_101_1#5 edge_1_2#0 edge_1_2#1 edge_1_2#2 edge_1_2#3 32868409#1 32868409#2.1 32868409#2 edge_4_3#0 41205403#1 -gneE84"/>
    </flow>
    <flow id="177" begin="54.42" end="3395.40" probability="0.005986262364548249">
        <route edges="edge_102_1#3 edge_102_1#4 edge_102_1#5 edge_102_1#6 edge_1_4#0 edge_1_4#1 edge_1_4#2 edge_1_4#3 edge_4_3#0 41205403#1 -gneE84"/>
    </flow>
    <flow id="777" begin="55.44" end="3349.67" probability="0.018820792160517325">
        <route edges="edge_4_1#1 edge_4_1#2 edge_4_1#3 edge_1_102#0 edge_1_102#1 32868406#9 edge_1_101#4 edge_1_101#5 gneE81"/>
    </flow>
    <flow id="1081" begin="56.21" end="3378.79" probability="0.010533957527650534">
        <route edges="edge_9_8#2 edge_9_8#3 edge_9_8#4 edge_8_105#0 edge_8_105#1 139283095#1"/>
    </flow>
    <flow id="456" begin="56.72" end="3214.52" probability="0.00760022844089273">
        <route edges="edge_109_6#1 edge_109_6#2 edge_109_6#3 edge_6_5#0 edge_6_5#1 edge_6_5#2 edge_6_5#3 edge_6_5#4 edge_6_5#5 edge_6_5#6 edge_6_5#8 edge_6_5#9 edge_5_2#0 edge_5_2#1"/>
    </flow>
    <flow id="886" begin="59.02" end="2853.52" probability="0.0035784582620766833">
        <route edges="edge_6_7#3 edge_6_7#4 edge_7_8#0 edge_7_8#1 edge_7_8#2 -38692932#1"/>
    </flow>