<?xml version="1.0" encoding="UTF-8"?>
<!-- generated on 2021-02-03 22:02:37.122662 by routeSampler.py UNKNOWN
  options: -r TrainingGym/Scenarios/VitalTri/VitalTriPM/VitalTriPM.rou.xml -t TrainingGym/Scenarios/VitalTri/VitalTriPM/VitalTriPM.turn.xml -o TrainingGym/Scenarios/VitalTri/VitalTriPM/VitalTriPM_Optimized.rou.xml <doubleminus>optimize full <doubleminus>write-flows probability
-->
<routes xmlns:xsi="http://www.w3.org/2001/XMLSchema-instance" xsi:noNamespaceSchemaLocation="http://sumo.dlr.de/xsd/routes_file.xsd">
<!-- begin="0.0" end="3600.0" -->
    <flow id="1237" begin="0.00" end="3591.31" probability="0.028958799685397524">
        <route edges="edge_9_8#4 edge_8_105#0 edge_8_105#1 edge_8_105#2 edge_8_105#3 edge_8_105#4 edge_8_105#5 edge_8_105#6 edge_8_105#7 edge_8_105#8 edge_8_105#9 -139283285#5"/>
    </flow>
    <flow id="156" begin="0.22" end="3539.60" probability="0.014691835481888852">
        <route edges="edge_101_1#5 edge_1_4#0 edge_1_4#1 edge_1_4#2 edge_1_4#3 edge_4_3#0 41205403#1 -gneE84"/>
    </flow>
    <flow id="975" begin="0.43" end="3583.49" probability="0.04381738524042832">
        <route edges="edge_4_3#2 edge_3_9#0 edge_3_9#1 edge_3_9#2 edge_3_9#3 edge_3_9#4 ramp_9_NW gneE8"/>
    </flow>
    <flow id="1232" begin="0.65" end="3564.80" probability="0.02917946842233219">
        <route edges="edge_9_8#4 edge_8_105#0 edge_8_105#1 edge_8_105#2 edge_8_105#3 -139283275#0"/>
    </flow>
    <flow id="351" begin="0.87" end="3591.09" probability="0.06322727547808397">
        <route edges="edge_104_6#1 edge_6_5#0 edge_6_5#1 edge_6_5#2 edge_6_5#3 edge_6_5#4 -130655214#5"/>
    </flow>
    <flow id="539" begin="1.09" end="2030.42" probability="0.001478319057816145">
        <route edges="edge_108_4#6 edge_4_1#0 edge_4_1#1 edge_4_1#2 ramp_1_NE edge_1_101#1 edge_1_101#2 edge_1_101#3 edge_1_101#4 gneE80"/>
    </flow>
    <flow id="590" begin="1.30" end="3592.40" probability="0.2403168864956114">
        <route edges="edge_1_2#12 edge_2_5#0 edge_2_5#1 edge_2_5#2 edge_2_5#3 edge_5_6#0 edge_5_6#1 edge_5_6#2 edge_5_6#3 edge_5_6#4 edge_6_104#0 edge_6_104#1"/>
    </flow>
    <flow id="1272" begin="1.74" end="1686.26" probability="0.00237456468463856">
        <route edges="gneE10 edge_9_8#0 edge_9_8#1 edge_9_8#2 edge_9_8#3 ramp_8_NW edge_8_7#1 edge_8_7#2 edge_8_7#3 289432766"/>
    </flow>
    <flow id="97" begin="1.96" end="3580.88" probability="0.05141209324914322">
        <route edges="edge_101_1#5 edge_1_2#0 edge_1_2#1 edge_1_2#2 edge_1_2#3 41205377"/>
    </flow>
    <flow id="270" begin="2.17" end="3504.83" probability="0.02655123751627983">
        <route edges="edge_102_1#6 edge_1_4#0 edge_1_4#1 edge_1_4#2 edge_1_4#3 edge_4_3#0 41205403#1 41205403#1.120 41205403#2 edge_2_1#5 edge_2_1#6 edge_2_1#7 edge_2_1#8 41205287#1"/>
    </flow>
    <flow id="339" begin="2.39" end="3598.48" probability="0.3095029001268386">
        <route edges="edge_103_2#5 edge_2_3#0 edge_2_3#1 edge_2_3#2 edge_2_3#3 edge_2_3#4 edge_2_3#5 edge_3_107#0 edge_3_107#1 edge_3_107#2"/>
    </flow>
    <flow id="11" begin="2.61" end="3542.86" probability="0.004236989075732855">
        <route edges="289432762 edge_7_6#0 edge_7_6#1 edge_7_6#2 289432764"/>
    </flow>
    <flow id="115" begin="2.82" end="3589.79" probability="0.051296868374818956">
        <route edges="edge_101_1#5 edge_1_2#0 edge_1_2#1 edge_1_2#2 edge_1_2#3 edge_1_2#4 edge_1_2#5 -41205403#2 -41205403#1 gneE85"/>
    </flow>
    <flow id="889" begin="3.04" end="3597.39" probability="0.29991506981800936">
        <route edges="edge_3_9#5 edge_9_8#0 edge_9_8#1 289420918#0"/>
    </flow>
    <flow id="1011" begin="3.91" end="3594.57" probability="0.022280043567708477">
        <route edges="edge_5_2#5 edge_2_1#0 edge_2_1#1 edge_2_1#2 edge_2_1#3 edge_2_1#4 edge_2_1#5 edge_2_1#6 41205377"/>
    </flow>
    <flow id="1023" begin="4.13" end="3599.78" probability="0.09316801619431934">
        <route edges="edge_5_2#5 edge_2_103#0 edge_2_103#1 edge_2_103#2 edge_2_103#3 edge_2_103#4"/>
    </flow>
    <flow id="395" begin="4.35" end="3593.26" probability="0.09362150381400844">
        <route edges="edge_105_8#9 edge_8_9#0 edge_8_9#1 edge_8_9#2 edge_8_9#3 289430973#0"/>
    </flow>
    <flow id="444" begin="4.56" end="886.69" probability="0.0034008620689653405">
        <route edges="edge_107_3#2 ramp_3_NE edge_3_4#1 edge_3_4#2 edge_3_4#3 edge_3_4#4 edge_4_1#0 edge_4_1#1 edge_4_1#2 ramp_1_NE edge_1_101#1 edge_1_101#2 edge_1_101#3 -32868406#9 -32868406#6"/>
    </flow>
    <flow id="332" begin="4.78" end="3547.85" probability="0.01749892684123157">
        <route edges="edge_103_2#5 edge_2_1#0 edge_2_1#1 edge_2_1#2 edge_2_1#3 edge_2_1#4 edge_2_1#5 edge_2_1#6 41205377"/>
    </flow>
    <flow id="386" begin="5.00" end="3390.55" probability="0.0023629829290204097">
        <route edges="edge_105_8#9 edge_8_7#0 edge_8_7#1 edge_8_7#2 edge_8_7#3 32868040"/>
    </flow>
    <flow id="353" begin="5.43" end="3595.87" probability="0.06322344931920476">
        <route edges="edge_104_6#1 edge_6_5#0 edge_6_5#1 edge_6_5#2 edge_6_5#3 edge_6_5#4 edge_6_5#5 edge_6_5#6 edge_6_5#8 edge_6_5#9 edge_5_2#0 edge_5_2#1 edge_5_2#2 -130655020#7"/>
    </flow>
    <flow id="301" begin="5.65" end="3438.78" probability="0.008155812923231772">
        <route edges="edge_103_2#4 ramp_2_SW edge_2_5#1 edge_2_5#2 edge_2_5#3 edge_5_6#0 edge_5_6#1 edge_5_6#2 edge_5_6#3 edge_5_6#4 edge_6_7#0 edge_6_7#1 edge_6_7#2 edge_6_7#3 edge_6_7#4 edge_7_8#0 edge_7_8#1 edge_7_8#2 289432755"/>
    </flow>
    <flow id="1234" begin="6.08" end="3599.13" probability="0.028944790469851548">
        <route edges="edge_9_8#4 edge_8_105#0 edge_8_105#1 edge_8_105#2 edge_8_105#3 edge_8_105#4 edge_8_105#5 -139283287#1"/>
    </flow>
    <flow id="78" begin="6.30" end="3595.00" probability="0.051272022764417606">
        <route edges="edge_101_1#5 edge_1_2#0 edge_1_2#1 edge_1_2#2 edge_1_2#3 32868409#1 32868409#2.1 -gneE83"/>
    </flow>
    <flow id="471" begin="6.52" end="3598.70" probability="0.23189272969209945">
        <route edges="edge_107_3#3 edge_3_2#0 edge_3_2#1 edge_3_2#2 edge_3_2#3 edge_3_2#4 edge_3_2#5 edge_2_103#0 edge_2_103#1 edge_2_103#2 edge_2_103#3 edge_2_103#4"/>
    </flow>
    <flow id="345" begin="6.95" end="3588.48" probability="0.02568733317155685">
        <route edges="edge_103_2#5 edge_2_3#0 edge_2_3#1 edge_2_3#2 edge_2_3#3 edge_2_3#4 ramp_3_SW edge_3_9#1 edge_3_9#2 289430971#0 gneE35 289430972#0 edge_9_3#2 edge_9_3#3 edge_9_3#4 edge_9_3#5 edge_3_4#0 edge_3_4#1 edge_3_4#2 41205403#1 -gneE84"/>
    </flow>
    <flow id="1249" begin="7.39" end="2813.04" probability="0.0017821187950127601">
        <route edges="edge_9_8#4 edge_8_106#0 edge_8_106#1 edge_8_106#2 edge_8_106#3 -139283399 edge_8_106#5 139283174#1"/>
    </flow>
    <flow id="296" begin="7.60" end="3595.44" probability="0.016723187791434786">
        <route edges="edge_103_2#4 ramp_2_SW edge_2_5#1 edge_2_5#2 edge_2_5#3 edge_5_6#0 edge_5_6#1 edge_5_6#2 -130655214#5"/>
    </flow>
    <flow id="1073" begin="8.26" end="3562.63" probability="0.041920196833541784">
        <route edges="edge_7_6#6 edge_6_104#0 edge_6_104#1"/>
    </flow>
    <flow id="712" begin="8.91" end="3554.37" probability="0.027358898149279443">
        <route edges="edge_2_1#10 edge_1_101#0 edge_1_101#1 edge_1_101#2 edge_1_101#3 -32868406#9 edge_102_1#4 ramp_1_SW edge_1_2#1 edge_1_2#2 edge_1_2#3 41205377"/>
    </flow>
    <flow id="1236" begin="9.13" end="3453.34" probability="0.030195558920006565">
        <route edges="edge_9_8#4 edge_8_105#0 edge_8_105#1 edge_8_105#2 edge_8_105#3 edge_8_105#4 edge_8_105#5 edge_8_105#6 edge_8_105#7 139284193#2"/>
    </flow>
    <flow id="1109" begin="10.21" end="3114.39" probability="0.0016107300342968073">
        <route edges="edge_8_7#3 32868040"/>
    </flow>
    <flow id="541" begin="10.43" end="3498.97" probability="0.004586447433980503">
        <route edges="edge_108_4#6 edge_4_3#0 41205403#1 -gneE84"/>
    </flow>
    <flow id="263" begin="10.65" end="3597.61" probability="0.015333303046820864">
        <route edges="edge_102_1#6 edge_1_4#0 edge_1_4#1 edge_1_4#2 edge_1_4#3 edge_4_3#0 41205403#1 41205403#1.120 41205403#2 edge_1_2#6 edge_1_2#7 edge_1_2#8 edge_1_2#9 edge_1_2#10 edge_1_2#11 ramp_2_NW edge_2_103#1 edge_2_103#2 edge_2_103#3 edge_2_103#4"/>
    </flow>
    <flow id="526" begin="11.08" end="3584.14" probability="0.024628762541802723">
        <route edges="edge_107_3#3 edge_3_9#0 edge_3_9#1 edge_3_9#2 edge_3_9#3 edge_3_9#4 ramp_9_NW gneE8"/>
    </flow>
    <flow id="1223" begin="11.30" end="3098.32" probability="0.0009718116554053442">
        <route edges="edge_9_8#3 ramp_8_NW edge_8_7#1 edge_8_7#2 edge_8_7#3 32868040"/>
    </flow>
    <flow id="1095" begin="11.52" end="3374.90" probability="0.003567829457363963">
        <route edges="edge_7_8#6 edge_8_106#0 edge_8_106#1 edge_8_106#2 edge_8_106#3 -139283399 edge_8_106#5 -139283171#7"/>
    </flow>
    <flow id="98" begin="11.73" end="3558.72" probability="0.0456725880551242">
        <route edges="edge_101_1#5 edge_1_2#0 edge_1_2#1 edge_1_2#2 edge_1_2#3 edge_1_2#4 edge_1_2#5 -41205403#2 -41205403#1 -41205403#1.121 edge_3_4#3 edge_3_4#4 edge_4_1#0 776672503#0"/>
    </flow>
    <flow id="231" begin="11.95" end="2983.38" probability="0.0006730769230768942">
        <route edges="edge_102_1#6 edge_1_101#0 edge_1_101#1 edge_1_101#2 edge_1_101#3 edge_1_101#4 edge_1_101#5 gneE81"/>
    </flow>
    <flow id="587" begin="12.17" end="3580.45" probability="0.023260518784628204">
        <route edges="edge_1_2#12 edge_2_5#0 edge_2_5#1 -130655020#7"/>
    </flow>
    <flow id="821" begin="12.60" end="13.60" probability="1.0">
        <route edges="edge_3_4#4 -32868409#2 -32868409#2.28 -32868409#1 edge_1_2#4 edge_1_2#5 -41205403#2 -41205403#1 gneE85"/>
    </flow>
    <flow id="972" begin="12.82" end="3581.97" probability="0.05099257320264735">
        <route edges="edge_4_3#2 edge_3_107#0 edge_3_107#1 edge_3_107#2"/>
    </flow>
    <flow id="926" begin="13.47" end="3411.41" probability="0.009417481936184132">
        <route edges="edge_4_1#3 edge_1_102#0 edge_1_102#1 32868406#9 gneE79"/>
    </flow>
    <flow id="715" begin="13.69" end="3058.12" probability="0.012153332857549987">
        <route edges="edge_2_1#10 edge_1_101#0 edge_1_101#1 edge_1_101#2 edge_1_101#3 -32868406#9 edge_1_102#2 41208868#6"/>
    </flow>
    <flow id="324" begin="13.91" end="3407.93" probability="0.01826739645349007">
        <route edges="edge_103_2#5 edge_2_1#0 edge_2_1#1 edge_2_1#2 edge_2_1#3 edge_2_1#4 edge_2_1#5 edge_2_1#6 32868409#1 32868409#2.1 -gneE83"/>
    </flow>
    <flow id="1275" begin="14.12" end="3560.24" probability="0.0369418234176779">
        <route edges="gneE3 edge_9_3#0 edge_9_3#1 edge_9_3#2 edge_9_3#3 edge_9_3#4 edge_9_3#5 edge_3_4#0 edge_3_4#1 edge_3_4#2 41205403#1 -gneE84"/>
    </flow>
    <flow id="903" begin="14.34" end="3455.73" probability="0.01365727002967199">
        <route edges="edge_3_9#5 gneE43"/>
    </flow>
    <flow id="999" begin="15.21" end="3584.57" probability="0.02241295349403157">
        <route edges="edge_5_2#5 edge_2_1#0 edge_2_1#1 edge_2_1#2 edge_2_1#3 edge_2_1#4 -41205403#2 -41205403#1 gneE85"/>
    </flow>
    <flow id="924" begin="15.43" end="3531.34" probability="0.009101470769990188">
        <route edges="edge_4_1#3 edge_1_102#0 edge_1_102#1 32868406#9 edge_1_101#4 edge_1_101#5 gneE81"/>
    </flow>
    <flow id="922" begin="15.86" end="3549.81" probability="0.009055026129725231">
        <route edges="edge_4_1#3 edge_1_102#0 edge_1_102#1 32868406#9 edge_1_101#4 -41208868#6"/>
    </flow>
    <flow id="588" begin="16.08" end="3594.13" probability="0.02319695773621255">
        <route edges="edge_1_2#12 edge_2_5#0 edge_2_5#1 edge_2_5#2 edge_2_5#3 edge_110_5#0"/>
    </flow>
    <flow id="1075" begin="16.51" end="3442.04" probability="0.009925472535835464">
        <route edges="edge_7_6#6 edge_6_109#0 edge_6_109#1 edge_6_109#2"/>
    </flow>
    <flow id="77" begin="16.95" end="3553.07" probability="0.05203440860214376">
        <route edges="edge_101_1#5 edge_1_2#0 edge_1_2#1 41205287#1"/>
    </flow>
    <flow id="437" begin="17.16" end="3577.62" probability="0.007583297736009241">
        <route edges="edge_107_3#2 ramp_3_NE edge_3_4#1 edge_3_4#2 41205403#1 41205403#1.120 41205403#2 edge_2_1#5 edge_2_1#6 edge_2_1#7 edge_2_1#8 41205287#1"/>
    </flow>
    <flow id="18" begin="17.38" end="3031.61" probability="0.0013270381316225076">
        <route edges="289432762 edge_7_8#0 edge_7_8#1 edge_7_8#2 edge_7_8#3 edge_7_8#4 edge_7_8#5 ramp_8_SW edge_8_105#1 139283095#1"/>
    </flow>
    <flow id="1290" begin="17.60" end="3448.56" probability="0.011950003166359193">
        <route edges="gneE3 gneE43"/>
    </flow>
    <flow id="436" begin="17.82" end="3501.58" probability="0.007750249469875555">
        <route edges="edge_107_3#2 ramp_3_NE edge_3_4#1 edge_3_4#2 41205403#1 41205403#1.120 41205403#2 edge_2_1#5 edge_2_1#6 41205377"/>
    </flow>
    <flow id="582" begin="18.03" end="3539.16" probability="0.0031239972849557876">
        <route edges="edge_1_2#11 ramp_2_NW edge_2_103#1 edge_2_103#2 edge_2_103#3 edge_2_103#4"/>
    </flow>
    <flow id="304" begin="18.69" end="3534.82" probability="0.017633009948709356">
        <route edges="edge_103_2#5 edge_2_1#0 edge_2_1#1 edge_2_1#2 edge_2_1#3 41205233#1 41205233#2"/>
    </flow>
    <flow id="583" begin="18.90" end="3584.36" probability="0.027205514929917126">
        <route edges="edge_1_2#12 edge_2_3#0 edge_2_3#1 edge_2_3#2 edge_2_3#3 edge_2_3#4 edge_2_3#5 edge_3_4#0 edge_3_4#1 edge_3_4#2 edge_3_4#3 edge_3_4#4 edge_4_108#0 edge_4_108#1 155378620#1"/>
    </flow>
    <flow id="438" begin="19.12" end="20.12" probability="1.0">
        <route edges="edge_107_3#2 ramp_3_NE edge_3_4#1 edge_3_4#2 41205403#1 41205403#1.120 41205403#2 edge_2_1#5 edge_2_1#6 edge_2_1#7 edge_2_1#8 edge_2_1#9 ramp_1_SE edge_1_4#1 edge_1_4#2 776672503#0"/>
    </flow>
    <flow id="16" begin="19.77" end="3555.24" probability="0.015273783185838713">
        <route edges="289432762 edge_7_8#0 edge_7_8#1 edge_7_8#2 289432755"/>
    </flow>
    <flow id="1154" begin="20.21" end="3524.61" probability="0.007989955979910947">
        <route edges="edge_9_3#5 edge_3_4#0 edge_3_4#1 edge_3_4#2 41205403#1 41205403#1.120 41205403#2 edge_1_2#6 41205233#1 41205233#2"/>
    </flow>
    <flow id="1153" begin="20.42" end="3591.74" probability="0.00784023848634073">
        <route edges="edge_9_3#5 edge_3_4#0 edge_3_4#1 edge_3_4#2 41205403#1 -gneE84"/>
    </flow>
    <flow id="323" begin="20.64" end="3593.92" probability="0.017351027605494423">
        <route edges="edge_103_2#5 edge_2_1#0 edge_2_1#1 edge_2_1#2 edge_2_1#3 edge_2_1#4 -41205403#2 -41205403#1 gneE85"/>
    </flow>
    <flow id="669" begin="21.08" end="3596.96" probability="0.00363546603475464">
        <route edges="edge_1_4#3 edge_4_3#0 41205403#1 41205403#1.120 41205403#2 edge_2_1#5 edge_2_1#6 41205377"/>
    </flow>
    <flow id="1112" begin="21.73" end="3586.09" probability="0.02693325205729598">
        <route edges="edge_8_7#3 edge_7_6#0 edge_7_6#1 edge_7_6#2 edge_7_6#3 edge_7_6#4 edge_7_6#5 edge_7_6#6 edge_6_104#0 edge_6_104#1"/>
    </flow>
    <flow id="116" begin="21.94" end="3586.96" probability="0.05161262798634117">
        <route edges="edge_101_1#5 edge_1_2#0 edge_1_2#1 edge_1_2#2 edge_1_2#3 edge_1_2#4 edge_1_2#5 edge_1_2#6 41205233#1 41205233#2"/>
    </flow>
    <flow id="1104" begin="23.25" end="3558.07" probability="0.019237199582024647">
        <route edges="edge_7_8#6 edge_8_9#0 edge_8_9#1 edge_8_9#2 edge_8_9#3 289430973#0"/>
    </flow>
    <flow id="1233" begin="23.68" end="3568.28" probability="0.02934044379060541">
        <route edges="edge_9_8#4 edge_8_105#0 edge_8_105#1 edge_8_105#2 edge_8_105#3 139283275#2"/>
    </flow>
    <flow id="754" begin="24.12" end="3581.31" probability="0.01967841436598808">
        <route edges="edge_2_3#5 edge_3_107#0 edge_3_107#1 edge_3_107#2"/>
    </flow>
    <flow id="979" begin="24.33" end="3384.46" probability="0.023808600064659576">
        <route edges="edge_5_2#5 edge_2_1#0 edge_2_1#1 edge_2_1#2 edge_2_1#3 41205233#1 41205233#2"/>
    </flow>
    <flow id="1230" begin="24.99" end="3598.91" probability="0.02909964131557753">
        <route edges="edge_9_8#4 edge_8_105#0 edge_8_105#1 -139284058#9"/>
    </flow>
    <flow id="1127" begin="25.42" end="2739.38" probability="0.0011053958850372329">
        <route edges="edge_8_9#5 gneE43"/>
    </flow>
    <flow id="1277" begin="26.07" end="3598.26" probability="0.036672191472533165">
        <route edges="gneE3 edge_9_3#0 gneE35 289430972#0 edge_9_3#2 edge_9_3#3 edge_9_3#4 edge_9_3#5 edge_3_4#0 edge_3_4#1 edge_3_4#2 41205403#1 -gneE84"/>
    </flow>
    <flow id="723" begin="28.68" end="3336.01" probability="0.011187261857836212">
        <route edges="edge_2_1#10 edge_1_101#0 edge_1_101#1 edge_1_101#2 edge_1_101#3 edge_1_101#4 gneE80"/>
    </flow>
    <flow id="1231" begin="29.11" end="3572.62" probability="0.029349438960079483">
        <route edges="edge_9_8#4 edge_8_105#0 edge_8_105#1 139283095#1"/>
    </flow>
    <flow id="220" begin="29.33" end="3544.16" probability="0.0039831241886624">
        <route edges="edge_102_1#4 ramp_1_SW edge_1_2#1 edge_1_2#2 edge_1_2#3 edge_1_2#4 edge_1_2#5 -41205403#2 -41205403#1 gneE85"/>
    </flow>
    <flow id="1012" begin="29.55" end="3394.89" probability="0.023771708954739474">
        <route edges="edge_5_2#5 edge_2_1#0 edge_2_1#1 edge_2_1#2 edge_2_1#3 edge_2_1#4 edge_2_1#5 edge_2_1#6 edge_2_1#7 edge_2_1#8 41205287#1"/>
    </flow>
    <flow id="206" begin="31.50" end="3381.42" probability="0.004477720845764209">
        <route edges="edge_102_1#4 ramp_1_SW edge_1_2#1 edge_1_2#2 edge_1_2#3 edge_1_2#4 edge_1_2#5 -41205403#2 -41205403#1 -41205403#1.121 edge_3_4#3 edge_3_4#4 edge_4_1#0 776672503#0"/>
    </flow>
    <flow id="713" begin="31.72" end="3590.87" probability="0.018543739698428593">
        <route edges="edge_2_1#10 edge_1_101#0 edge_1_101#1 edge_1_101#2 edge_1_101#3 -32868406#9 edge_102_1#4 ramp_1_SW edge_1_2#1 edge_1_2#2 edge_1_2#3 edge_1_2#4 edge_1_2#5 edge_1_2#6 edge_1_2#7 edge_1_2#8 edge_1_2#9 edge_1_2#10 edge_1_2#11 ramp_2_NW edge_2_103#1 edge_2_103#2 edge_2_103#3 edge_2_103#4"/>
    </flow>
    <flow id="271" begin="31.94" end="3599.35" probability="0.01653861380108185">
        <route edges="edge_102_1#6 edge_1_4#0 edge_1_4#1 edge_1_4#2 edge_1_4#3 edge_4_3#0 41205403#1 41205403#1.120 41205403#2 edge_2_1#5 edge_2_1#6 edge_2_1#7 edge_2_1#8 edge_2_1#9 edge_2_1#10 edge_1_102#0 edge_1_102#1 -32868406#6"/>
    </flow>
    <flow id="927" begin="32.16" end="3560.02" probability="0.009070641128286051">
        <route edges="edge_4_1#3 edge_1_102#0 edge_1_102#1 edge_1_102#2 -41208868#3"/>
    </flow>
    <flow id="708" begin="32.59" end="3576.75" probability="0.02736896150073199">
        <route edges="edge_2_1#10 edge_1_101#0 edge_1_101#1 edge_1_101#2 edge_1_101#3 -32868406#9 edge_102_1#4 ramp_1_SW edge_1_2#1 41205287#1"/>
    </flow>
    <flow id="1055" begin="33.89" end="3570.23" probability="0.010462797984761449">
        <route edges="edge_6_7#4 edge_7_8#0 edge_7_8#1 edge_7_8#2 -38692932#1"/>
    </flow>
    <flow id="352" begin="34.33" end="3589.14" probability="0.06385719088074436">
        <route edges="edge_104_6#1 edge_6_5#0 edge_6_5#1 edge_6_5#2 edge_6_5#3 edge_6_5#4 edge_6_5#5 edge_6_5#6 edge_6_5#8 edge_6_5#9 edge_110_5#0"/>
    </flow>
    <flow id="297" begin="34.76" end="3596.52" probability="0.0870356249618621">
        <route edges="edge_103_2#4 ramp_2_SW edge_2_5#1 edge_2_5#2 edge_2_5#3 edge_5_6#0 edge_5_6#1 edge_5_6#2 edge_5_6#3 edge_5_6#4 edge_6_104#0 edge_6_104#1"/>
    </flow>
    <flow id="397" begin="34.98" end="3590.44" probability="0.011250305548764057">
        <route edges="edge_105_8#9 edge_8_9#0 edge_8_9#1 edge_8_9#2 edge_8_9#3 edge_8_9#4 edge_8_9#5 edge_9_3#0 gneE35 289430972#0 edge_9_3#2 edge_9_3#3 edge_9_3#4 ramp_3_SE edge_3_107#1 edge_3_107#2"/>
    </flow>
    <flow id="364" begin="36.28" end="3581.10" probability="0.011848299111245724">
        <route edges="edge_104_6#1 edge_6_7#0 edge_6_7#1 edge_6_7#2 edge_6_7#3 edge_6_7#4 edge_7_8#0 edge_7_8#1 edge_7_8#2 289432755"/>
    </flow>
    <flow id="413" begin="36.50" end="3573.28" probability="0.00961328172994097">
        <route edges="edge_106_8#14 edge_8_7#0 edge_8_7#1 edge_8_7#2 edge_8_7#3 edge_7_6#0 edge_7_6#1 edge_7_6#2 289432764"/>
    </flow>
    <flow id="274" begin="36.94" end="3438.57" probability="0.0023518140010217">
        <route edges="edge_102_1#6 edge_1_4#0 edge_1_4#1 edge_1_4#2 edge_1_4#3 edge_4_3#0 edge_4_3#1 ramp_3_NW edge_3_2#1 edge_3_2#2 edge_3_2#3 edge_3_2#4 edge_3_2#5 edge_2_5#0 edge_2_5#1 edge_2_5#2 edge_2_5#3 edge_5_6#0 edge_5_6#1 edge_5_6#2 -130655214#5"/>
    </flow>
    <flow id="269" begin="37.15" end="3551.77" probability="0.02646096068248912">
        <route edges="edge_102_1#6 edge_1_4#0 edge_1_4#1 edge_1_4#2 edge_1_4#3 edge_4_3#0 41205403#1 41205403#1.120 41205403#2 edge_2_1#5 edge_2_1#6 41205377"/>
    </flow>
    <flow id="589" begin="37.37" end="3483.98" probability="0.02408166803252559">
        <route edges="edge_1_2#12 edge_2_5#0 edge_2_5#1 edge_2_5#2 edge_2_5#3 edge_5_6#0 edge_5_6#1 edge_5_6#2 -130655214#5"/>
    </flow>
    <flow id="929" begin="38.02" end="3598.04" probability="0.008988709185229165">
        <route edges="edge_4_1#3 edge_1_102#0 edge_1_102#1 edge_1_102#2 edge_1_102#3 -41212224#2"/>
    </flow>
    <flow id="402" begin="38.24" end="2840.20" probability="0.0021413616625309837">
        <route edges="edge_106_8#14 edge_8_105#0 edge_8_105#1 edge_8_105#2 edge_8_105#3 -139283275#0"/>
    </flow>
    <flow id="985" begin="38.89" end="2859.53" probability="0.0010635880449853434">
        <route edges="edge_5_2#5 edge_2_1#0 edge_2_1#1 edge_2_1#2 edge_2_1#3 edge_2_1#4 -41205403#2 -41205403#1 -41205403#1.121 edge_3_4#3 edge_3_4#4 edge_4_1#0 edge_4_1#1 edge_4_1#2 ramp_1_NE edge_1_101#1 edge_1_101#2 edge_1_101#3 edge_1_101#4 edge_1_101#5 edge_1_101#5.164"/>
    </flow>
    <flow id="273" begin="40.41" end="3376.86" probability="0.0035966397499344934">
        <route edges="edge_102_1#6 edge_1_4#0 edge_1_4#1 edge_1_4#2 edge_1_4#3 edge_4_3#0 edge_4_3#1 ramp_3_NW edge_3_2#1 edge_3_2#2 edge_3_2#3 edge_3_2#4 edge_3_2#5 edge_2_103#0 edge_2_103#1 edge_2_103#2 edge_2_103#3 edge_2_103#4"/>
    </flow>
    <flow id="528" begin="40.63" end="668.98" probability="0.0031829183955738314">
        <route edges="edge_108_4#6 -32868409#2 -32868409#2.28 -32868409#1 edge_2_1#7 edge_2_1#8 41205287#1"/>
    </flow>
    <flow id="1107" begin="41.50" end="3518.96" probability="0.006901593252107842">
        <route edges="edge_7_8#6 edge_8_9#0 edge_8_9#1 edge_8_9#2 edge_8_9#3 edge_8_9#4 edge_8_9#5 gneE44 gneE8"/>
    </flow>
    <flow id="409" begin="42.15" end="3380.99" probability="0.01138120648142">
        <route edges="edge_106_8#14 edge_8_7#0 edge_8_7#1 edge_8_7#2 289432755"/>
    </flow>
    <flow id="369" begin="42.80" end="2630.31" probability="0.0015458896632799194">
        <route edges="edge_104_6#1 edge_6_7#0 edge_6_7#1 edge_6_7#2 edge_6_7#3 edge_6_7#4 edge_7_8#0 edge_7_8#1 edge_7_8#2 edge_7_8#3 edge_7_8#4 edge_7_8#5 ramp_8_SW edge_8_105#1 edge_8_105#2 edge_8_105#3 edge_8_105#4 edge_8_105#5 -139283287#1"/>
    </flow>
    <flow id="1155" begin="43.67" end="3592.18" probability="0.006199791819739542">
        <route edges="edge_9_3#5 edge_3_4#0 edge_3_4#1 edge_3_4#2 41205403#1 41205403#1.120 41205403#2 edge_1_2#6 edge_1_2#7 edge_1_2#8 edge_1_2#9 edge_1_2#10 edge_1_2#11 ramp_2_NW edge_2_103#1 edge_2_103#2 edge_2_103#3 edge_2_103#4"/>
    </flow>
    <flow id="1000" begin="44.11" end="3548.72" probability="0.022827030378174327">
        <route edges="edge_5_2#5 edge_2_1#0 edge_2_1#1 edge_2_1#2 edge_2_1#3 edge_2_1#4 edge_2_1#5 edge_2_1#6 32868409#1 32868409#2.1 -gneE83"/>
    </flow>
    <flow id="430" begin="46.28" end="3523.30" probability="0.006327251140410366">
        <route edges="edge_107_3#2 ramp_3_NE edge_3_4#1 edge_3_4#2 41205403#1 41205403#1.120 41205403#2 edge_1_2#6 edge_1_2#7 edge_1_2#8 edge_1_2#9 edge_1_2#10 edge_1_2#11 ramp_2_NW edge_2_103#1 edge_2_103#2 edge_2_103#3 edge_2_103#4"/>
    </flow>
    <flow id="412" begin="46.71" end="3399.46" probability="0.010140950035641416">
        <route edges="edge_106_8#14 edge_8_7#0 edge_8_7#1 edge_8_7#2 edge_8_7#3 edge_7_6#0 edge_7_6#1 458400946"/>
    </flow>
    <flow id="574" begin="46.93" end="3558.94" probability="0.009681081415489935">
        <route edges="edge_109_6#3 edge_6_7#0 edge_6_7#1 edge_6_7#2 edge_6_7#3 edge_6_7#4 edge_7_8#0 edge_7_8#1 edge_7_8#2 -38692932#1"/>
    </flow>
    <flow id="136" begin="47.80" end="48.80" probability="1.0">
        <route edges="edge_101_1#5 edge_1_4#0 edge_1_4#1 edge_1_4#2 edge_1_4#3 edge_4_108#0 edge_108_4#6 edge_4_3#0 41205403#1 41205403#1.120 41205403#2 edge_2_1#5 edge_2_1#6 edge_2_1#7 edge_2_1#8 41205287#1"/>
    </flow>
    <flow id="443" begin="48.67" end="3565.67" probability="0.008245660097608095">
        <route edges="edge_107_3#2 ramp_3_NE edge_3_4#1 edge_3_4#2 edge_3_4#3 edge_3_4#4 edge_4_1#0 776672503#0"/>
    </flow>
    <flow id="733" begin="48.89" end="3333.84" probability="0.003044182816323523">
        <route edges="edge_2_1#10 edge_1_102#0 edge_1_102#1 edge_1_102#2 -41208868#3"/>
    </flow>
    <flow id="724" begin="49.10" end="3452.69" probability="0.01087089052026683">
        <route edges="edge_2_1#10 edge_1_101#0 edge_1_101#1 edge_1_101#2 edge_1_101#3 gneE79"/>
    </flow>
    <flow id="157" begin="49.32" end="3530.04" probability="0.014939450686639778">
        <route edges="edge_101_1#5 edge_1_4#0 edge_1_4#1 edge_1_4#2 edge_1_4#3 edge_4_3#0 41205403#1 41205403#1.120 41205403#2 edge_1_2#6 41205233#1 41205233#2"/>
    </flow>
    <flow id="159" begin="49.54" end="3484.41" probability="0.015138844961728806">
        <route edges="edge_101_1#5 edge_1_4#0 edge_1_4#1 edge_1_4#2 edge_1_4#3 edge_4_3#0 41205403#1 41205403#1.120 41205403#2 edge_2_1#5 edge_2_1#6 32868409#1 32868409#2.1 -gneE83"/>
    </flow>
    <flow id="1100" begin="50.62" end="3393.81" probability="0.0032902775069860554">
        <route edges="edge_7_8#6 edge_8_106#0 edge_8_106#1 edge_8_106#2 edge_8_106#3 edge_8_106#4 139283399 edge_106_8#9 edge_106_8#10 edge_106_8#11 edge_106_8#12 edge_106_8#13 edge_106_8#14 edge_8_9#0 edge_8_9#1 edge_8_9#2 edge_8_9#3 289430973#0"/>
    </flow>
    <flow id="1279" begin="51.28" end="3542.21" probability="0.019479056451108437">
        <route edges="gneE3 edge_9_8#0 edge_9_8#1 289420918#0"/>
    </flow>
    <flow id="388" begin="53.01" end="3242.15" probability="0.010974758141435203">
        <route edges="edge_105_8#9 edge_8_7#0 edge_8_7#1 edge_8_7#2 edge_8_7#3 edge_7_6#0 edge_7_6#1 edge_7_6#2 289432764"/>
    </flow>
    <flow id="953" begin="53.45" end="3511.14" probability="0.004048950609525693">
        <route edges="edge_4_1#3 edge_1_2#0 edge_1_2#1 edge_1_2#2 edge_1_2#3 edge_1_2#4 edge_1_2#5 edge_1_2#6 41205233#1 41205233#2"/>
    </flow>
    <flow id="1030" begin="56.49" end="2259.42" probability="0.0013618206923761565">
        <route edges="edge_5_6#4 edge_6_109#0 edge_6_109#1 edge_6_109#2"/>
    </flow>
    <flow id="1111" begin="57.79" end="3391.42" probability="0.003299713224271292">
        <route edges="edge_8_7#3 edge_7_6#0 edge_7_6#1 edge_7_6#2 289432764"/>
    </flow>
    <flow id="1093" begin="58.66" end="2615.75" probability="0.004692837114453384">
        <route edges="edge_7_8#6 edge_8_106#0 edge_8_106#1 edge_8_106#2 edge_8_106#3 -139283399 edge_106_8#8 edge_106_8#9 edge_106_8#10 edge_106_8#11 139400810"/>
    </flow>
    <flow id="720" begin="59.32" end="3529.82" probability="0.010661272146746262">
        <route edges="edge_2_1#10 edge_1_101#0 edge_1_101#1 edge_1_101#2 edge_1_101#3 edge_1_101#4 edge_1_101#5 -41212224#5"/>
    </flow>
    <flow id="1096" begin="59.53" end="3492.67" probability="0.0034953483956707268">
        <route edges="edge_7_8#6 edge_8_106#0 edge_8_106#1 edge_8_106#2 edge_8_106#3 -139283399 edge_8_106#5 139283174#1"/>
    </flow>
    <flow id="654" begin="59.75" end="3324.71" probability="0.0033691022825577247">
        <route edges="edge_1_4#3 edge_4_3#0 41205403#1 41205403#1.120 41205403#2 edge_1_2#6 edge_1_2#7 edge_1_2#8 edge_1_2#9 edge_1_2#10 edge_1_2#11 ramp_2_NW edge_2_103#1 edge_2_103#2 edge_2_103#3 edge_2_103#4"/>
    </flow>
    <flow id="1182" begin="59.97" end="3264.53" probability="0.0009361651637398293">
        <route edges="edge_9_3#5 edge_3_4#0 edge_3_4#1 edge_3_4#2 edge_3_4#3 edge_3_4#4 edge_4_1#0 edge_4_1#1 edge_4_1#2 ramp_1_NE edge_1_101#1 edge_1_101#2 edge_1_101#3 -32868406#9 edge_1_102#2 41208868#6"/>
    </flow>
    <flow id="709" begin="60.40" end="3591.96" probability="0.02746662360034077">
        <route edges="edge_2_1#10 edge_1_101#0 edge_1_101#1 edge_1_101#2 edge_1_101#3 -32868406#9 edge_102_1#4 ramp_1_SW edge_1_2#1 edge_1_2#2 edge_1_2#3 32868409#1 32868409#2.1 -gneE83"/>
    </flow>
    <flow id="81" begin="62.14" end="63.14" probability="1.0">
        <route edges="edge_101_1#5 edge_1_2#0 edge_1_2#1 edge_1_2#2 edge_1_2#3 32868409#1 32868409#2.1 32868409#2 edge_4_108#0 edge_108_4#6 -32868409#2 -gneE82"/>
    </flow>
    <flow id="1043" begin="62.57" end="1062.68" probability="0.0029996741255701705">
        <route edges="edge_5_6#4 edge_6_7#0 edge_6_7#1 edge_6_7#2 edge_6_7#3 edge_6_7#4 edge_7_8#0 edge_7_8#1 edge_7_8#2 edge_7_8#3 edge_7_8#4 edge_7_8#5 ramp_8_SW edge_8_105#1 edge_8_105#2 edge_8_105#3 -139283275#0"/>
    </flow>
    <flow id="613" begin="63.66" end="64.66" probability="1.0">
        <route edges="edge_1_4#3 edge_4_108#0 edge_108_4#6 edge_4_1#0 776672503#0"/>
    </flow>
    <flow id="1264" begin="64.96" end="3434.44" probability="0.0014839115295329718">
        <route edges="edge_9_8#4 edge_8_106#0 edge_8_106#1 edge_8_106#2 edge_8_106#3 edge_8_106#4 edge_8_106#5 edge_8_106#6 edge_8_106#7 139284189 edge_8_106#9 edge_8_106#10 -139283375#8"/>
    </flow>