<?xml version="1.0" encoding="UTF-8"?>

<!-- generated on Mon 01 Mar 2021 08:05:41 PM by Eclipse SUMO netedit Version 1.7.0
<configuration xmlns:xsi="http://www.w3.org/2001/XMLSchema-instance" xsi:noNamespaceSchemaLocation="http://sumo.dlr.de/xsd/netconvertConfiguration.xsd">

    <input>
        <sumo-net-file value="/home/eric/Github/G15_Capstone/TrainingGym/Scenarios/VitalTri/VitalTriAM/VitalTriTrimAM.net.xml"/>
    </input>

    <output>
        <output-file value="/home/eric/Github/G15_Capstone/TrainingGym/Scenarios/VitalTri/VitalTriAM/VitalTriTrimAM.net.xml"/>
        <output.street-names value="true"/>
    </output>

    <processing>
        <geometry.min-radius.fix.railways value="false"/>
        <geometry.max-grade.fix value="false"/>
        <offset.disable-normalization value="true"/>
        <lefthand value="false"/>
    </processing>

    <junctions>
        <no-turnarounds value="true"/>
        <junctions.corner-detail value="5"/>
        <junctions.limit-turn-speed value="5.5"/>
        <rectangular-lane-cut value="false"/>
    </junctions>

    <pedestrian>
        <walkingareas value="false"/>
    </pedestrian>

    <report>
        <aggregate-warnings value="5"/>
    </report>

</configuration>
-->

<net version="1.6" junctionCornerDetail="5" limitTurnSpeed="5.50" xmlns:xsi="http://www.w3.org/2001/XMLSchema-instance" xsi:noNamespaceSchemaLocation="http://sumo.dlr.de/xsd/net_file.xsd">

    <location netOffset="-633795.94,-5518778.91" convBoundary="181.41,1151.10,3453.09,4702.53" origBoundary="-97.148536,49.806113,-97.073019,49.959891" projParameter="+proj=utm +zone=14 +ellps=WGS84 +datum=WGS84 +units=m +no_defs"/>

    <type id="highway.bridleway" priority="1" numLanes="1" speed="2.78" allow="pedestrian" oneway="1" width="2.00"/>
    <type id="highway.bus_guideway" priority="1" numLanes="1" speed="27.78" allow="bus" oneway="1"/>
    <type id="highway.cycleway" priority="1" numLanes="1" speed="8.33" allow="bicycle" oneway="0" width="1.00"/>
    <type id="highway.footway" priority="1" numLanes="1" speed="2.78" allow="pedestrian" oneway="1" width="2.00"/>
    <type id="highway.ford" priority="1" numLanes="1" speed="2.78" allow="army" oneway="0"/>
    <type id="highway.living_street" priority="2" numLanes="1" speed="2.78" disallow="tram rail_urban rail rail_electric rail_fast ship" oneway="0"/>
    <type id="highway.motorway" priority="14" numLanes="2" speed="39.44" allow="private emergency authority army vip passenger hov taxi bus coach delivery truck trailer motorcycle evehicle custom1 custom2" oneway="1"/>
    <type id="highway.motorway_link" priority="9" numLanes="1" speed="22.22" allow="private emergency authority army vip passenger hov taxi bus coach delivery truck trailer motorcycle evehicle custom1 custom2" oneway="1"/>
    <type id="highway.path" priority="1" numLanes="1" speed="2.78" allow="pedestrian bicycle" oneway="1" width="2.00"/>
    <type id="highway.pedestrian" priority="1" numLanes="1" speed="2.78" allow="pedestrian" oneway="1" width="2.00"/>
    <type id="highway.primary" priority="12" numLanes="2" speed="27.78" disallow="tram rail_urban rail rail_electric rail_fast ship" oneway="0"/>
    <type id="highway.primary_link" priority="7" numLanes="1" speed="22.22" disallow="tram rail_urban rail rail_electric rail_fast ship" oneway="0"/>
    <type id="highway.raceway" priority="15" numLanes="2" speed="83.33" allow="vip" oneway="0"/>
    <type id="highway.residential" priority="3" numLanes="1" speed="13.89" disallow="tram rail_urban rail rail_electric rail_fast ship" oneway="0"/>
    <type id="highway.secondary" priority="11" numLanes="1" speed="27.78" disallow="tram rail_urban rail rail_electric rail_fast ship" oneway="0"/>
    <type id="highway.secondary_link" priority="6" numLanes="1" speed="22.22" disallow="tram rail_urban rail rail_electric rail_fast ship" oneway="0"/>
    <type id="highway.service" priority="1" numLanes="1" speed="5.56" allow="pedestrian delivery bicycle" oneway="0"/>
    <type id="highway.stairs" priority="1" numLanes="1" speed="1.39" allow="pedestrian" oneway="1" width="2.00"/>
    <type id="highway.step" priority="1" numLanes="1" speed="1.39" allow="pedestrian" oneway="1" width="2.00"/>
    <type id="highway.steps" priority="1" numLanes="1" speed="1.39" allow="pedestrian" oneway="1" width="2.00"/>
    <type id="highway.tertiary" priority="10" numLanes="1" speed="22.22" disallow="tram rail_urban rail rail_electric rail_fast ship" oneway="0"/>
    <type id="highway.tertiary_link" priority="5" numLanes="1" speed="22.22" disallow="tram rail_urban rail rail_electric rail_fast ship" oneway="0"/>
    <type id="highway.track" priority="1" numLanes="1" speed="5.56" allow="pedestrian motorcycle moped bicycle" oneway="0"/>
    <type id="highway.trunk" priority="13" numLanes="2" speed="27.78" disallow="pedestrian bicycle tram rail_urban rail rail_electric rail_fast ship" oneway="0"/>
    <type id="highway.trunk_link" priority="8" numLanes="1" speed="22.22" disallow="pedestrian bicycle tram rail_urban rail rail_electric rail_fast ship" oneway="0"/>
    <type id="highway.unclassified" priority="4" numLanes="1" speed="13.89" disallow="tram rail_urban rail rail_electric rail_fast ship" oneway="0"/>
    <type id="highway.unsurfaced" priority="1" numLanes="1" speed="8.33" disallow="tram rail_urban rail rail_electric rail_fast ship" oneway="0"/>
    <type id="railway.highspeed" priority="21" numLanes="1" speed="69.44" allow="rail_fast" oneway="1"/>
    <type id="railway.light_rail" priority="19" numLanes="1" speed="27.78" allow="rail_urban" oneway="1"/>
    <type id="railway.preserved" priority="16" numLanes="1" speed="27.78" allow="rail" oneway="1"/>
    <type id="railway.rail" priority="20" numLanes="1" speed="44.44" allow="rail" oneway="1"/>
    <type id="railway.subway" priority="18" numLanes="1" speed="27.78" allow="rail_urban" oneway="1"/>
    <type id="railway.tram" priority="17" numLanes="1" speed="13.89" allow="tram" oneway="1"/>

    <edge id=":1438345351_0" function="internal">
        <lane id=":1438345351_0_0" index="0" disallow="tram rail_urban rail rail_electric rail_fast ship" speed="6.62" length="9.51" shape="1551.49,1888.19 1549.18,1887.26 1547.09,1887.38 1545.22,1888.53 1543.57,1890.71"/>
    </edge>
    <edge id=":1438345351_1" function="internal">
        <lane id=":1438345351_1_0" index="0" disallow="tram rail_urban rail rail_electric rail_fast ship" speed="13.89" length="14.74" shape="1551.49,1888.19 1548.25,1886.38 1544.96,1884.77 1541.60,1883.33 1538.12,1882.05"/>
    </edge>
    <edge id=":1438345351_2" function="internal">
        <lane id=":1438345351_2_0" index="0" disallow="tram rail_urban rail rail_electric rail_fast ship" speed="13.89" length="15.40" shape="1539.16,1879.02 1542.73,1880.35 1546.31,1881.88 1549.80,1883.58 1553.13,1885.44"/>
    </edge>
    <edge id=":1438345351_3" function="internal">
        <lane id=":1438345351_3_0" index="0" disallow="tram rail_urban rail rail_electric rail_fast ship" speed="7.71" length="6.47" shape="1539.16,1879.02 1542.90,1880.94 1544.27,1882.73"/>
    </edge>
    <edge id=":1438345351_6" function="internal">
        <lane id=":1438345351_6_0" index="0" disallow="tram rail_urban rail rail_electric rail_fast ship" speed="7.71" length="8.49" shape="1544.27,1882.73 1544.89,1883.54 1545.11,1886.79 1543.57,1890.71"/>
    </edge>
    <edge id=":1438345351_4" function="internal">
        <lane id=":1438345351_4_0" index="0" disallow="tram rail_urban rail rail_electric rail_fast ship" speed="6.14" length="9.06" shape="1540.79,1889.13 1541.72,1886.75 1541.59,1884.78 1540.39,1883.21 1538.12,1882.05"/>
    </edge>
    <edge id=":1438345351_5" function="internal">
        <lane id=":1438345351_5_0" index="0" disallow="tram rail_urban rail rail_electric rail_fast ship" speed="8.09" length="14.75" shape="1540.79,1889.13 1543.32,1885.80 1546.22,1884.08 1549.49,1883.96 1553.13,1885.44"/>
    </edge>
    <edge id=":1526945820_0" function="internal">
        <lane id=":1526945820_0_0" index="0" allow="pedestrian delivery bicycle" speed="5.04" length="5.00" shape="2689.95,2089.44 2691.23,2089.95 2692.36,2089.92 2693.34,2089.36 2694.18,2088.28"/>
    </edge>
    <edge id=":1526945820_1" function="internal">
        <lane id=":1526945820_1_0" index="0" allow="pedestrian delivery bicycle" speed="5.05" length="5.01" shape="2689.54,2096.46 2690.04,2095.18 2690.01,2094.05 2689.46,2093.07 2688.37,2092.23"/>
    </edge>
    <edge id=":1526945820_2" function="internal">
        <lane id=":1526945820_2_0" index="0" disallow="tram rail_urban rail rail_electric rail_fast ship" speed="16.67" length="9.40" shape="2689.54,2096.46 2694.18,2088.28"/>
        <lane id=":1526945820_2_1" index="1" disallow="tram rail_urban rail rail_electric rail_fast ship" speed="16.67" length="9.40" shape="2692.33,2098.03 2696.96,2089.85"/>
    </edge>
    <edge id=":1526946136_0" function="internal">
        <lane id=":1526946136_0_0" index="0" disallow="tram rail_urban rail rail_electric rail_fast ship" speed="13.89" length="15.77" shape="1960.06,2150.89 1959.38,2147.40 1958.36,2144.13 1956.47,2140.79 1953.15,2137.11"/>
    </edge>
    <edge id=":1526946136_1" function="internal">
        <lane id=":1526946136_1_0" index="0" disallow="tram rail_urban rail rail_electric rail_fast ship" speed="13.89" length="16.05" shape="1964.31,2148.42 1961.16,2144.91 1958.93,2142.57 1956.60,2140.33 1953.15,2137.11"/>
        <lane id=":1526946136_1_1" index="1" disallow="tram rail_urban rail rail_electric rail_fast ship" speed="13.89" length="16.05" shape="1966.70,2146.29 1963.49,2142.72 1961.22,2140.33 1958.85,2138.05 1955.33,2134.77"/>
    </edge>
    <edge id=":1526946142_0" function="internal">
        <lane id=":1526946142_0_0" index="0" allow="pedestrian delivery bicycle" speed="5.24" length="5.29" shape="1836.26,2157.78 1834.74,2157.85 1833.60,2158.33 1832.83,2159.22 1832.45,2160.51"/>
    </edge>
    <edge id=":1526946142_1" function="internal">
        <lane id=":1526946142_1_0" index="0" allow="pedestrian delivery bicycle" speed="4.96" length="5.10" shape="1833.80,2151.15 1833.78,2152.56 1834.22,2153.61 1835.13,2154.28 1836.51,2154.59"/>
    </edge>
    <edge id=":1526946142_2" function="internal">
        <lane id=":1526946142_2_0" index="0" disallow="tram rail_urban rail rail_electric rail_fast ship" speed="16.67" length="9.51" shape="1833.80,2151.15 1832.45,2160.51"/>
        <lane id=":1526946142_2_1" index="1" disallow="tram rail_urban rail rail_electric rail_fast ship" speed="16.67" length="9.51" shape="1830.64,2150.65 1829.28,2160.11"/>
    </edge>
    <edge id=":1526946153_0" function="internal">
        <lane id=":1526946153_0_0" index="0" disallow="tram rail_urban rail rail_electric rail_fast ship" speed="13.89" length="12.83" shape="1982.41,2170.27 1979.55,2167.55 1977.10,2165.97 1974.60,2164.90 1971.57,2163.70"/>
    </edge>
    <edge id=":1526946153_1" function="internal">
        <lane id=":1526946153_1_0" index="0" disallow="tram rail_urban rail rail_electric rail_fast ship" speed="13.89" length="13.20" shape="1982.41,2170.27 1979.89,2167.27 1978.38,2165.04 1976.89,2162.79 1974.41,2159.75"/>
        <lane id=":1526946153_1_1" index="1" disallow="tram rail_urban rail rail_electric rail_fast ship" speed="13.89" length="13.20" shape="1984.76,2168.10 1982.25,2165.11 1980.75,2162.89 1979.26,2160.65 1976.80,2157.62"/>
    </edge>
    <edge id=":1526946160_0" function="internal">
        <lane id=":1526946160_0_0" index="0" allow="pedestrian delivery bicycle" speed="5.08" length="5.05" shape="2645.28,2168.19 2646.58,2168.69 2647.73,2168.67 2648.73,2168.12 2649.57,2167.04"/>
    </edge>
    <edge id=":1526946160_1" function="internal">
        <lane id=":1526946160_1_0" index="0" allow="pedestrian delivery bicycle" speed="5.03" length="5.01" shape="2644.93,2175.22 2645.43,2173.94 2645.40,2172.80 2644.84,2171.83 2643.74,2171.00"/>
    </edge>
    <edge id=":1526946160_2" function="internal">
        <lane id=":1526946160_2_0" index="0" disallow="tram rail_urban rail rail_electric rail_fast ship" speed="16.67" length="9.40" shape="2644.93,2175.22 2649.57,2167.04"/>
        <lane id=":1526946160_2_1" index="1" disallow="tram rail_urban rail rail_electric rail_fast ship" speed="16.67" length="9.40" shape="2647.72,2176.79 2652.35,2168.62"/>
    </edge>
    <edge id=":1526946528_0" function="internal">
        <lane id=":1526946528_0_0" index="0" allow="private pedestrian passenger delivery bicycle" speed="6.38" length="9.04" shape="2049.97,2231.54 2047.65,2230.62 2045.63,2230.69 2043.90,2231.74 2042.48,2233.79"/>
    </edge>
    <edge id=":1526946528_1" function="internal">
        <lane id=":1526946528_1_0" index="0" disallow="tram rail_urban rail rail_electric rail_fast ship" speed="13.89" length="14.43" shape="2049.97,2231.54 2037.56,2224.18"/>
        <lane id=":1526946528_1_1" index="1" disallow="tram rail_urban rail rail_electric rail_fast ship" speed="13.89" length="14.43" shape="2051.56,2228.77 2039.16,2221.41"/>
    </edge>
    <edge id=":1526946528_3" function="internal">
        <lane id=":1526946528_3_0" index="0" allow="pedestrian delivery bicycle" speed="6.96" length="10.39" shape="2051.56,2228.77 2048.25,2226.62 2046.12,2224.68 2045.16,2222.93 2045.38,2221.39"/>
    </edge>
    <edge id=":1526946528_4" function="internal">
        <lane id=":1526946528_4_0" index="0" allow="pedestrian delivery bicycle" speed="9.72" length="12.24" shape="2048.17,2222.96 2042.48,2233.79"/>
    </edge>
    <edge id=":1526946528_5" function="internal">
        <lane id=":1526946528_5_0" index="0" allow="pedestrian delivery bicycle" speed="6.75" length="9.88" shape="2048.17,2222.96 2047.03,2223.89 2045.15,2223.94 2042.52,2223.11 2039.16,2221.41"/>
    </edge>
    <edge id=":1526946528_6" function="internal">
        <lane id=":1526946528_6_0" index="0" allow="private pedestrian passenger delivery bicycle" speed="6.79" length="9.50" shape="2039.62,2232.36 2040.51,2229.81 2040.47,2227.60 2039.48,2225.72 2037.56,2224.18"/>
    </edge>
    <edge id=":1526946547_0" function="internal">
        <lane id=":1526946547_0_0" index="0" allow="pedestrian delivery bicycle" speed="5.04" length="5.01" shape="2602.44,2243.95 2603.72,2244.45 2604.85,2244.43 2605.83,2243.87 2606.67,2242.79"/>
    </edge>
    <edge id=":1526946547_1" function="internal">
        <lane id=":1526946547_1_0" index="0" allow="pedestrian delivery bicycle" speed="5.04" length="5.00" shape="2602.04,2250.96 2602.54,2249.69 2602.51,2248.56 2601.95,2247.58 2600.87,2246.74"/>
    </edge>
    <edge id=":1526946547_2" function="internal">
        <lane id=":1526946547_2_0" index="0" disallow="tram rail_urban rail rail_electric rail_fast ship" speed="16.67" length="9.40" shape="2602.04,2250.96 2606.67,2242.79"/>
        <lane id=":1526946547_2_1" index="1" disallow="tram rail_urban rail rail_electric rail_fast ship" speed="16.67" length="9.40" shape="2604.82,2252.54 2609.46,2244.36"/>
    </edge>
    <edge id=":1526946555_0" function="internal">
        <lane id=":1526946555_0_0" index="0" allow="pedestrian delivery bicycle" speed="5.04" length="5.00" shape="2620.20,2257.67 2618.92,2257.17 2617.79,2257.19 2616.80,2257.75 2615.97,2258.83"/>
    </edge>
    <edge id=":1526946555_1" function="internal">
        <lane id=":1526946555_1_0" index="0" allow="pedestrian delivery bicycle" speed="5.04" length="5.00" shape="2620.60,2250.66 2620.10,2251.93 2620.13,2253.06 2620.69,2254.04 2621.77,2254.88"/>
    </edge>
    <edge id=":1526946555_2" function="internal">
        <lane id=":1526946555_2_0" index="0" disallow="tram rail_urban rail rail_electric rail_fast ship" speed="16.67" length="9.40" shape="2620.60,2250.66 2615.97,2258.83"/>
        <lane id=":1526946555_2_1" index="1" disallow="tram rail_urban rail rail_electric rail_fast ship" speed="16.67" length="9.40" shape="2617.82,2249.08 2613.18,2257.26"/>
    </edge>
    <edge id=":1526946862_0" function="internal">
        <lane id=":1526946862_0_0" index="0" allow="pedestrian delivery bicycle" speed="5.56" length="9.40" shape="2566.19,2327.02 2558.01,2322.39"/>
    </edge>
    <edge id=":1526946862_1" function="internal">
        <lane id=":1526946862_1_0" index="0" allow="pedestrian delivery bicycle" speed="6.08" length="7.76" shape="2566.19,2327.02 2565.21,2326.01 2564.94,2324.50 2565.41,2322.50 2566.60,2320.01"/>
    </edge>
    <edge id=":1526946862_2" function="internal">
        <lane id=":1526946862_2_0" index="0" allow="pedestrian delivery bicycle" speed="5.05" length="5.01" shape="2559.58,2319.60 2560.86,2320.10 2561.99,2320.07 2562.98,2319.52 2563.82,2318.43"/>
    </edge>
    <edge id=":1526946862_3" function="internal">
        <lane id=":1526946862_3_0" index="0" allow="pedestrian delivery bicycle" speed="5.56" length="9.41" shape="2559.58,2319.60 2567.77,2324.23"/>
    </edge>
    <edge id=":1526946862_4" function="internal">
        <lane id=":1526946862_4_0" index="0" allow="pedestrian delivery bicycle" speed="5.04" length="5.00" shape="2559.18,2326.61 2559.68,2325.34 2559.65,2324.21 2559.09,2323.23 2558.01,2322.39"/>
    </edge>
    <edge id=":1526946862_5" function="internal">
        <lane id=":1526946862_5_0" index="0" disallow="tram rail_urban rail rail_electric rail_fast ship" speed="16.67" length="9.40" shape="2559.18,2326.61 2563.82,2318.43"/>
        <lane id=":1526946862_5_1" index="1" disallow="tram rail_urban rail rail_electric rail_fast ship" speed="16.67" length="9.40" shape="2561.96,2328.19 2566.60,2320.01"/>
    </edge>
    <edge id=":1526946875_0" function="internal">
        <lane id=":1526946875_0_0" index="0" allow="pedestrian delivery bicycle" speed="5.04" length="5.00" shape="2577.39,2333.36 2576.12,2332.86 2574.99,2332.89 2574.01,2333.45 2573.17,2334.54"/>
    </edge>
    <edge id=":1526946875_1" function="internal">
        <lane id=":1526946875_1_0" index="0" allow="pedestrian delivery bicycle" speed="5.56" length="9.41" shape="2577.39,2333.36 2569.21,2328.73"/>
    </edge>
    <edge id=":1526946875_2" function="internal">
        <lane id=":1526946875_2_0" index="0" allow="pedestrian delivery bicycle" speed="5.05" length="5.02" shape="2577.80,2326.34 2577.30,2327.62 2577.33,2328.75 2577.89,2329.74 2578.97,2330.58"/>
    </edge>
    <edge id=":1526946875_3" function="internal">
        <lane id=":1526946875_3_0" index="0" disallow="tram rail_urban rail rail_electric rail_fast ship" speed="16.67" length="9.41" shape="2577.80,2326.34 2573.17,2334.54"/>
        <lane id=":1526946875_3_1" index="1" disallow="tram rail_urban rail rail_electric rail_fast ship" speed="16.67" length="9.41" shape="2575.01,2324.77 2570.38,2332.96"/>
    </edge>
    <edge id=":1526946875_5" function="internal">
        <lane id=":1526946875_5_0" index="0" allow="pedestrian delivery bicycle" speed="5.56" length="9.41" shape="2570.78,2325.94 2578.97,2330.58"/>
    </edge>
    <edge id=":1526946875_6" function="internal">
        <lane id=":1526946875_6_0" index="0" allow="pedestrian delivery bicycle" speed="6.09" length="7.77" shape="2570.78,2325.94 2571.77,2326.95 2572.03,2328.46 2571.57,2330.46 2570.38,2332.96"/>
    </edge>
    <edge id=":1526947076_0" function="internal">
        <lane id=":1526947076_0_0" index="0" allow="pedestrian delivery bicycle" speed="5.12" length="5.10" shape="2535.04,2408.64 2533.71,2408.14 2532.54,2408.17 2531.54,2408.72 2530.70,2409.79"/>
    </edge>
    <edge id=":1526947076_1" function="internal">
        <lane id=":1526947076_1_0" index="0" allow="pedestrian delivery bicycle" speed="5.01" length="5.03" shape="2535.32,2401.60 2534.82,2402.89 2534.86,2404.02 2535.43,2405.00 2536.55,2405.81"/>
    </edge>
    <edge id=":1526947076_2" function="internal">
        <lane id=":1526947076_2_0" index="0" disallow="tram rail_urban rail rail_electric rail_fast ship" speed="16.67" length="9.40" shape="2535.32,2401.60 2530.70,2409.79"/>
        <lane id=":1526947076_2_1" index="1" disallow="tram rail_urban rail rail_electric rail_fast ship" speed="16.67" length="9.40" shape="2532.53,2400.03 2527.91,2408.22"/>
    </edge>
    <edge id=":1526947113_0" function="internal">
        <lane id=":1526947113_0_0" index="0" allow="pedestrian delivery bicycle" speed="9.56" length="10.20" shape="2392.71,2409.02 2395.18,2410.09 2397.65,2410.56 2400.10,2410.43 2402.53,2409.70"/>
    </edge>
    <edge id=":1526947113_1" function="internal">
        <lane id=":1526947113_1_0" index="0" disallow="tram rail_urban rail rail_electric rail_fast ship" speed="13.89" length="10.16" shape="2392.71,2409.02 2401.47,2414.23"/>
        <lane id=":1526947113_1_1" index="1" disallow="tram rail_urban rail rail_electric rail_fast ship" speed="13.89" length="10.16" shape="2391.16,2411.82 2399.85,2416.99"/>
    </edge>
    <edge id=":1526947429_0" function="internal">
        <lane id=":1526947429_0_0" index="0" allow="pedestrian delivery bicycle" speed="6.08" length="7.80" shape="2680.67,2487.05 2682.36,2488.36 2683.22,2489.90 2683.25,2491.65 2682.45,2493.64"/>
    </edge>
    <edge id=":1526947429_1" function="internal">
        <lane id=":1526947429_1_0" index="0" allow="pedestrian delivery bicycle" speed="3.90" length="2.60" shape="2679.68,2492.03 2679.95,2491.37 2679.94,2490.78 2679.65,2490.27 2679.09,2489.84"/>
    </edge>
    <edge id=":1526947739_0" function="internal">
        <lane id=":1526947739_0_0" index="0" disallow="tram rail_urban rail rail_electric rail_fast ship" speed="13.89" length="14.48" shape="2647.34,2565.52 2634.64,2558.55"/>
    </edge>
    <edge id=":1526947739_1" function="internal">
        <lane id=":1526947739_1_0" index="0" disallow="tram rail_urban rail rail_electric rail_fast ship" speed="7.95" length="6.04" shape="2647.34,2565.52 2644.17,2563.17 2643.11,2561.37"/>
    </edge>
    <edge id=":1526947739_6" function="internal">
        <lane id=":1526947739_6_0" index="0" disallow="tram rail_urban rail rail_electric rail_fast ship" speed="7.95" length="8.29" shape="2643.11,2561.37 2642.55,2560.39 2642.47,2557.17 2643.95,2553.52"/>
    </edge>
    <edge id=":1526947739_2" function="internal">
        <lane id=":1526947739_2_0" index="0" disallow="tram rail_urban rail rail_electric rail_fast ship" speed="6.43" length="9.03" shape="2646.72,2555.12 2645.78,2557.43 2645.83,2559.46 2646.86,2561.21 2648.86,2562.69"/>
    </edge>
    <edge id=":1526947739_3" function="internal">
        <lane id=":1526947739_3_0" index="0" disallow="tram rail_urban rail rail_electric rail_fast ship" speed="8.07" length="14.26" shape="2646.72,2555.12 2644.29,2558.22 2641.47,2559.82 2638.25,2559.93 2634.64,2558.55"/>
    </edge>
    <edge id=":1526947739_4" function="internal">
        <lane id=":1526947739_4_0" index="0" disallow="tram rail_urban rail rail_electric rail_fast ship" speed="6.59" length="9.16" shape="2636.20,2555.76 2638.51,2556.64 2640.57,2556.56 2642.38,2555.52 2643.95,2553.52"/>
    </edge>
    <edge id=":1526947739_5" function="internal">
        <lane id=":1526947739_5_0" index="0" disallow="tram rail_urban rail rail_electric rail_fast ship" speed="13.89" length="14.43" shape="2636.20,2555.76 2648.86,2562.69"/>
    </edge>
    <edge id=":1526947797_0" function="internal">
        <lane id=":1526947797_0_0" index="0" allow="pedestrian delivery bicycle" speed="6.08" length="7.72" shape="2568.43,2571.90 2566.75,2570.62 2565.87,2569.11 2565.81,2567.36 2566.56,2565.38"/>
    </edge>
    <edge id=":1526947797_1" function="internal">
        <lane id=":1526947797_1_0" index="0" allow="pedestrian delivery bicycle" speed="3.90" length="2.57" shape="2569.36,2566.93 2569.11,2567.59 2569.13,2568.17 2569.42,2568.67 2569.98,2569.10"/>
    </edge>
    <edge id=":1526947985_0" function="internal">
        <lane id=":1526947985_0_0" index="0" disallow="tram rail_urban rail rail_electric rail_fast ship" speed="13.89" length="13.53" shape="2708.68,2610.64 2706.40,2607.95 2704.24,2605.53 2702.01,2603.18 2699.52,2600.69"/>
    </edge>
    <edge id=":1526947985_1" function="internal">
        <lane id=":1526947985_1_0" index="0" disallow="tram rail_urban rail rail_electric rail_fast ship" speed="8.03" length="5.65" shape="2708.68,2610.64 2706.73,2607.47 2706.41,2605.56"/>
    </edge>
    <edge id=":1526947985_6" function="internal">
        <lane id=":1526947985_6_0" index="0" disallow="tram rail_urban rail rail_electric rail_fast ship" speed="8.03" length="8.04" shape="2706.41,2605.56 2706.21,2604.39 2707.13,2601.41 2709.48,2598.51"/>
    </edge>
    <edge id=":1526947985_2" function="internal">
        <lane id=":1526947985_2_0" index="0" disallow="tram rail_urban rail rail_electric rail_fast ship" speed="6.54" length="8.74" shape="2711.66,2600.86 2710.16,2602.71 2709.57,2604.61 2709.90,2606.57 2711.14,2608.59"/>
    </edge>
    <edge id=":1526947985_3" function="internal">
        <lane id=":1526947985_3_0" index="0" disallow="tram rail_urban rail rail_electric rail_fast ship" speed="8.01" length="13.70" shape="2711.66,2600.86 2708.59,2602.99 2705.55,2603.67 2702.52,2602.90 2699.52,2600.69"/>
    </edge>
    <edge id=":1526947985_4" function="internal">
        <lane id=":1526947985_4_0" index="0" disallow="tram rail_urban rail rail_electric rail_fast ship" speed="6.51" length="8.72" shape="2701.76,2598.41 2703.67,2599.81 2705.60,2600.30 2707.53,2599.87 2709.48,2598.51"/>
    </edge>
    <edge id=":1526947985_5" function="internal">
        <lane id=":1526947985_5_0" index="0" disallow="tram rail_urban rail rail_electric rail_fast ship" speed="13.89" length="13.86" shape="2701.76,2598.41 2704.28,2600.93 2706.59,2603.37 2708.83,2605.87 2711.14,2608.59"/>
    </edge>
    <edge id=":1526948154_0" function="internal">
        <lane id=":1526948154_0_0" index="0" disallow="tram rail_urban rail rail_electric rail_fast ship" speed="13.89" length="14.39" shape="2750.12,2660.59 2740.93,2649.51"/>
    </edge>
    <edge id=":1526948154_1" function="internal">
        <lane id=":1526948154_1_0" index="0" disallow="tram rail_urban rail rail_electric rail_fast ship" speed="7.99" length="5.92" shape="2750.12,2660.59 2748.08,2657.27 2747.78,2655.26"/>
    </edge>
    <edge id=":1526948154_6" function="internal">
        <lane id=":1526948154_6_0" index="0" disallow="tram rail_urban rail rail_electric rail_fast ship" speed="7.99" length="8.29" shape="2747.78,2655.26 2747.60,2654.09 2748.68,2651.07 2751.32,2648.20"/>
    </edge>
    <edge id=":1526948154_2" function="internal">
        <lane id=":1526948154_2_0" index="0" disallow="tram rail_urban rail rail_electric rail_fast ship" speed="6.50" length="9.03" shape="2753.35,2650.67 2751.67,2652.50 2750.99,2654.42 2751.29,2656.44 2752.58,2658.55"/>
    </edge>
    <edge id=":1526948154_3" function="internal">
        <lane id=":1526948154_3_0" index="0" disallow="tram rail_urban rail rail_electric rail_fast ship" speed="8.02" length="14.20" shape="2753.35,2650.67 2750.02,2652.69 2746.84,2653.17 2743.81,2652.11 2740.93,2649.51"/>
    </edge>
    <edge id=":1526948154_4" function="internal">
        <lane id=":1526948154_4_0" index="0" disallow="tram rail_urban rail rail_electric rail_fast ship" speed="6.53" length="9.06" shape="2743.40,2647.46 2745.23,2649.12 2747.16,2649.80 2749.19,2649.49 2751.32,2648.20"/>
    </edge>
    <edge id=":1526948154_5" function="internal">
        <lane id=":1526948154_5_0" index="0" disallow="tram rail_urban rail rail_electric rail_fast ship" speed="13.89" length="14.40" shape="2743.40,2647.46 2752.58,2658.55"/>
    </edge>
    <edge id=":1526948441_0" function="internal">
        <lane id=":1526948441_0_0" index="0" allow="pedestrian delivery bicycle" speed="5.56" length="9.69" shape="2764.74,2750.22 2758.70,2742.64"/>
    </edge>
    <edge id=":1526948441_1" function="internal">
        <lane id=":1526948441_1_0" index="0" allow="pedestrian delivery bicycle" speed="6.89" length="10.32" shape="2764.74,2750.22 2763.26,2747.85 2762.91,2745.56 2763.69,2743.35 2765.62,2741.24"/>
    </edge>
    <edge id=":1526948441_2" function="internal">
        <lane id=":1526948441_2_0" index="0" allow="pedestrian delivery bicycle" speed="5.08" length="5.12" shape="2767.67,2743.70 2766.70,2744.76 2766.29,2745.85 2766.46,2746.98 2767.18,2748.15"/>
    </edge>
    <edge id=":1526948441_3" function="internal">
        <lane id=":1526948441_3_0" index="0" allow="pedestrian delivery bicycle" speed="6.82" length="10.42" shape="2767.67,2743.70 2765.22,2745.20 2762.91,2745.53 2760.73,2744.68 2758.70,2742.64"/>
    </edge>
    <edge id=":1526948441_4" function="internal">
        <lane id=":1526948441_4_0" index="0" allow="pedestrian delivery bicycle" speed="4.99" length="5.06" shape="2761.26,2740.72 2762.25,2741.71 2763.31,2742.13 2764.43,2741.97 2765.62,2741.24"/>
    </edge>
    <edge id=":1526948441_5" function="internal">
        <lane id=":1526948441_5_0" index="0" allow="pedestrian delivery bicycle" speed="5.56" length="9.50" shape="2761.26,2740.72 2767.18,2748.15"/>
    </edge>
    <edge id=":1526948478_0" function="internal">
        <lane id=":1526948478_0_0" index="0" allow="pedestrian delivery bicycle" speed="4.84" length="5.27" shape="2843.68,2771.98 2842.43,2771.18 2841.29,2771.04 2840.28,2771.57 2839.38,2772.77"/>
    </edge>
    <edge id=":1526948478_1" function="internal">
        <lane id=":1526948478_1_0" index="0" disallow="tram rail_urban rail rail_electric rail_fast ship" speed="13.89" length="9.39" shape="2843.68,2771.98 2841.57,2770.17 2840.14,2768.89 2838.82,2767.52 2837.01,2765.40"/>
    </edge>
    <edge id=":1526948478_2" function="internal">
        <lane id=":1526948478_2_0" index="0" disallow="tram rail_urban rail rail_electric rail_fast ship" speed="13.89" length="8.85" shape="2839.48,2763.36 2841.18,2765.35 2842.43,2766.64 2843.77,2767.84 2845.78,2769.54"/>
    </edge>
    <edge id=":1526948478_3" function="internal">
        <lane id=":1526948478_3_0" index="0" allow="pedestrian delivery bicycle" speed="7.98" length="4.41" shape="2839.48,2763.36 2840.61,2765.31 2840.95,2767.43"/>
    </edge>