<?xml version="1.0" encoding="UTF-8"?>
<!-- generated on 2021-01-19 20:20:31.341228 by routeSampler.py UNKNOWN
  options: -r TrainingGym/Scenarios/VitalTri/VitalTriAM/VitalTriAM.rou.xml -t TrainingGym/Scenarios/VitalTri/VitalTriAM/VitalTriAM.turn.xml -o TrainingGym/Scenarios/VitalTri/VitalTriAM/VitalTriAM_Optimized.rou.xml <doubleminus>optimize full <doubleminus>write-flows probability
-->
<routes xmlns:xsi="http://www.w3.org/2001/XMLSchema-instance" xsi:noNamespaceSchemaLocation="http://sumo.dlr.de/xsd/routes_file.xsd">
<!-- begin="0.0" end="3600.0" -->
    <flow id="9" begin="0.00" end="3597.31" probability="0.032802267234860176">
        <route edges="edge_101_1#5 edge_1_2#0 edge_1_2#1 41205287#1 -41205375#1 41205375#1 41205375#2 32868406#6 32868406#9 edge_1_101#4 edge_1_101#5"/>
    </flow>
    <flow id="327" begin="0.30" end="3594.92" probability="0.3833501795390281">
        <route edges="edge_3_2#5 edge_2_103#0 edge_2_103#1 edge_2_103#2 edge_2_103#3 edge_2_103#4"/>
    </flow>
    <flow id="166" begin="0.90" end="3500.26" probability="0.029719709468814505">
        <route edges="edge_106_8#14 edge_8_7#0 edge_8_7#1 edge_8_7#2 edge_8_7#3 edge_7_6#0 edge_7_6#1 edge_7_6#2 289432764"/>
    </flow>
    <flow id="460" begin="1.19" end="3596.12" probability="0.06898617341382175">
        <route edges="edge_5_2#5 edge_2_1#0 edge_2_1#1 edge_2_1#2 edge_2_1#3 41205233#1 41205233#2 41205375#0 41205375#1 41205375#2 41205375#4 41205375#5 41208868#3 41208868#6 edge_1_101#5"/>
    </flow>
    <flow id="302" begin="1.49" end="3546.84" probability="0.009872084643606234">
        <route edges="edge_2_1#10 edge_1_102#0 edge_1_102#1 32868406#9 gneE79"/>
    </flow>
    <flow id="497" begin="1.79" end="3559.98" probability="0.02360749755210606">
        <route edges="edge_7_6#6 edge_6_104#0 edge_6_104#1"/>
    </flow>
    <flow id="178" begin="2.09" end="3598.81" probability="0.03086149396656817">
        <route edges="edge_107_3#2 ramp_3_NE edge_3_4#1 edge_3_4#2 41205403#1 41205403#2 edge_2_1#5 edge_2_1#6 41205377 -41205375#0 41205233#3 41205233#5 -41205233#5 -41205233#4 -41205233#2 -41205233#1 edge_1_2#7 edge_1_2#8 edge_1_2#9 edge_1_2#10 edge_1_2#11 ramp_2_NW edge_2_103#1 edge_2_103#2 edge_2_103#3 edge_2_103#4"/>
    </flow>
    <flow id="100" begin="2.39" end="3557.59" probability="0.004219165616687822">
        <route edges="edge_104_6#1 edge_6_5#0 edge_6_5#1 edge_6_5#2 edge_6_5#3 edge_6_5#4 -130655214#5 -130655214#4 130655057#3 -130655020#5 -130655141 130655139 -130655020#4 -130655171#3 -130655171#2 -130655171#1 -130655171#0 130655171#0 edge_109_6#0 edge_6_109#2 130655171#1 130655214#2 -130655214#2 130655171#2 130655171#3 -130655020#1 -130655020#0 130655020#0 130655020#1 130655020#2 130655020#5 130655020#6 -130655020#6 -130655057#5 130655214#4 -130655278 -130655057#0 130655057#0 130655057#1 -130655057#2 130655278 130655325#0 -130655325#1 130655214#5 edge_5_6#3 edge_5_6#4 edge_6_104#0 edge_6_104#1"/>
    </flow>
    <flow id="137" begin="2.69" end="3460.24" probability="0.0341281837200834">
        <route edges="edge_104_6#1 edge_6_5#0 edge_6_5#1 edge_6_5#2 edge_6_5#3 edge_6_5#4 edge_6_5#5 edge_6_5#6 edge_6_5#8 edge_6_5#9 edge_5_2#0 edge_5_2#1 edge_5_2#2 -130655020#7 -130655325#1 130655325#0 130655020#7 edge_2_5#2 edge_2_5#3 edge_110_5#0"/>
    </flow>
    <flow id="63" begin="2.99" end="691.03" probability="0.0029067804783951498">
        <route edges="edge_102_1#6 edge_1_4#0 edge_1_4#1 edge_1_4#2 edge_1_4#3 edge_4_108#0 edge_108_4#6 edge_4_1#0 edge_4_1#1 edge_4_1#2 ramp_1_NE edge_1_101#1 edge_1_101#2 edge_1_101#3 edge_1_101#4 edge_1_101#5"/>
    </flow>
    <flow id="537" begin="3.58" end="3593.13" probability="0.22091918561657314">
        <route edges="edge_9_3#5 edge_3_4#0 edge_3_4#1 edge_3_4#2 41205403#1 41205403#2 edge_2_1#5 edge_2_1#6 41205377 -41205375#0 41205233#3 41205233#5 41205233#6 41208868#0 41208868#1 41208868#2 41208868#3 edge_102_1#2 edge_102_1#3 32868406#9 edge_1_101#4 edge_1_101#5"/>
    </flow>
    <flow id="22" begin="3.88" end="3595.52" probability="0.03285408756224542">
        <route edges="edge_101_1#5 edge_1_2#0 edge_1_2#1 41205287#1 41205375#2 32868406#6 edge_1_102#2 -41208868#3 41208868#3 41208868#6 edge_1_101#5"/>
    </flow>
    <flow id="116" begin="4.18" end="3581.48" probability="0.032985734294275454">
        <route edges="edge_104_6#1 edge_6_5#0 edge_6_5#1 edge_6_5#2 edge_6_5#3 edge_6_5#4 -130655214#5 130655325#0 -130655020#6 130655020#6 130655020#7 edge_2_5#2 edge_2_5#3 edge_110_5#0"/>
    </flow>
    <flow id="448" begin="5.08" end="3575.21" probability="0.06946512384404736">
        <route edges="edge_5_2#5 edge_2_1#0 edge_2_1#1 edge_2_1#2 edge_2_1#3 41205233#1 -41205233#1 edge_2_1#4 edge_2_1#5 edge_2_1#6 41205377 -41205375#0 41205233#3 41205233#5 41205233#6 100317222#11 -100317222#12 41208868#0 41208868#1 -41212173#1 41212224#1 -41205375#8 41205375#8 -41212224#1 -41212224#0 -41212177#0 -32868405#2 -41205375#9 41205375#9 32868405#1 32868405#3 -32868405#3 41212177#0 41212224#0 41212173#0 41208868#2 -41205375#7 -41205375#4 -32868406#5 -32868406#4 -41209074#1 41209074#1 32868406#2 32868406#5 32868406#6 32868406#9 gneE79"/>
    </flow>
    <flow id="68" begin="5.67" end="3596.42" probability="0.010582769645893789">
        <route edges="edge_102_1#6 edge_1_4#0 edge_1_4#1 edge_1_4#2 edge_1_4#3 edge_4_3#0 41205403#1 41205403#2 edge_2_1#5 edge_2_1#6 41205377 -41205375#0 41205233#3 41205233#5 41205233#6 100317222#11 -32868405#3 41212177#0 -41212177#0 -32868405#2 32868405#1 32868405#3 -100317222#12 41208868#0 41208868#1 -41208868#1 -41209072#3 41209074#0 41209072#0 -41209072#2 41209074#1 32868406#2 32868406#5 41205375#4 -41208590#1 41208590#1 41205375#5 41205375#8 -41212224#1 41212224#1 -41205375#8 -41205375#7 -41205375#4 -32868406#5 -32868406#4 -gneE65 41205274#0 -41205274#1 -gneE66 -41209074#1 -41209074#0 41209072#3 -41208868#0 -100317222#10 -41205233#5 -41205233#4 41205375#0 41205375#1 41205375#2 32868406#6 32868406#9 gneE79"/>
    </flow>
    <flow id="545" begin="5.97" end="3563.87" probability="0.005902369761065632">
        <route edges="edge_9_3#5 edge_3_4#0 edge_3_4#1 edge_3_4#2 edge_3_4#3 edge_3_4#4 edge_4_1#0 edge_1_4#3 edge_4_108#0 edge_4_108#1 -155378620#0 155378620#0 edge_108_4#5 edge_108_4#6 edge_4_3#0 41205403#1 41205403#2 edge_1_2#6 edge_1_2#7 edge_1_2#8 edge_1_2#9 edge_1_2#10 edge_1_2#11 ramp_2_NW edge_2_103#1 edge_2_103#2 edge_2_103#3 edge_2_103#4"/>
    </flow>
    <flow id="421" begin="6.57" end="3576.71" probability="0.01904688879594847">
        <route edges="edge_4_1#3 edge_1_102#0 edge_1_102#1 edge_1_102#2 -41208868#3 -41208868#2 41208868#2 -41205375#7 41205375#5 41205375#8 -41212224#1 -41212224#0 -41212177#0 32868405#3 -100317222#12 41208868#0 41208868#1 -41208868#1 -41209072#3 41209072#3 -41208868#0 100317222#11 -32868405#3 -32868405#2 -41205375#9 -41205375#8 41208868#3 41208868#6 edge_1_101#5"/>
    </flow>
    <flow id="505" begin="7.17" end="3331.23" probability="0.009325931582467728">
        <route edges="edge_7_8#6 edge_8_106#0 edge_8_106#1 edge_8_106#2 edge_8_106#3 edge_8_106#4 edge_8_106#5 139283174#1 139283174#2 139284171#2 139283299#1 139283299#2 edge_106_8#11 edge_106_8#12 edge_106_8#13 edge_106_8#14 edge_8_9#0 edge_8_9#1 edge_8_9#2 edge_8_9#3 edge_8_9#4 edge_8_9#5 edge_9_3#0 edge_9_3#1 edge_9_3#2 edge_9_3#3 edge_9_3#4 ramp_3_SE edge_3_107#1 edge_3_107#2"/>
    </flow>
    <flow id="117" begin="7.47" end="1342.65" probability="0.001497924898730139">
        <route edges="edge_104_6#1 edge_6_5#0 edge_6_5#1 edge_6_5#2 edge_6_5#3 edge_6_5#4 -130655214#5 130655325#0 -130655020#6 130655020#6 130655020#7 edge_5_2#3 edge_5_2#4 ramp_2_SE edge_2_3#1 edge_2_3#2 edge_2_3#3 edge_2_3#4 ramp_3_SW edge_3_9#1 edge_3_9#2 edge_3_9#3 edge_3_9#4 ramp_9_NW"/>
    </flow>
    <flow id="162" begin="7.76" end="3597.91" probability="0.18300095657961082">
        <route edges="edge_105_8#9 edge_8_9#0 edge_8_9#1 edge_8_9#2 edge_8_9#3 289430973#0"/>
    </flow>
    <flow id="236" begin="8.06" end="3511.31" probability="0.02854497580011282">
        <route edges="edge_1_2#12 edge_2_5#0 edge_2_5#1 -130655020#7 -130655020#6 130655020#6 130655020#7 edge_2_5#2 edge_2_5#3 edge_110_5#0"/>
    </flow>
    <flow id="247" begin="8.96" end="3589.25" probability="0.02793069573034644">
        <route edges="edge_1_2#12 edge_2_5#0 edge_2_5#1 edge_2_5#2 edge_2_5#3 edge_5_6#0 edge_6_5#9 edge_110_5#0"/>
    </flow>
    <flow id="322" begin="9.56" end="3397.83" probability="0.01416651977202003">
        <route edges="edge_2_3#5 edge_3_4#0 edge_3_4#1 edge_3_4#2 edge_3_4#3 edge_3_4#4 edge_4_108#0 edge_108_4#6 edge_4_1#0 edge_4_1#1 edge_4_1#2 ramp_1_NE edge_1_101#1 edge_1_101#2 edge_1_101#3 edge_1_101#4 edge_1_101#5"/>
    </flow>
    <flow id="468" begin="9.85" end="3593.73" probability="0.13700258774732244">
        <route edges="edge_5_2#5 edge_2_103#0 edge_2_103#1 edge_2_103#2 edge_2_103#3 edge_2_103#4"/>
    </flow>
    <flow id="243" begin="10.45" end="3599.70" probability="0.027860979375249482">
        <route edges="edge_1_2#12 edge_2_5#0 edge_2_5#1 edge_2_5#2 edge_2_5#3 edge_110_5#0"/>
    </flow>
    <flow id="171" begin="10.75" end="3427.99" probability="0.003511608261236985">
        <route edges="edge_106_8#14 edge_8_9#0 edge_8_9#1 edge_8_9#2 edge_8_9#3 edge_8_9#4 edge_8_9#5 edge_9_3#0 edge_9_3#1 edge_9_3#2 edge_9_3#3 edge_9_3#4 ramp_3_SE edge_3_107#1 edge_3_107#2"/>
    </flow>
    <flow id="419" begin="11.05" end="3260.16" probability="0.005232204861111304">
        <route edges="edge_4_1#3 edge_1_102#0 edge_1_102#1 edge_102_1#4 ramp_1_SW edge_1_2#1 edge_1_2#2 edge_1_2#3 edge_1_2#4 edge_1_2#5 -41205403#2 -41205403#1 edge_3_4#3 edge_3_4#4 edge_4_1#0 edge_1_4#3 edge_4_3#0 41205403#1 41205403#2 edge_1_2#6 edge_1_2#7 edge_1_2#8 edge_1_2#9 edge_1_2#10 edge_1_2#11 ramp_2_NW edge_2_103#1 edge_2_103#2 edge_2_103#3 edge_2_103#4"/>
    </flow>
    <flow id="227" begin="11.35" end="3481.74" probability="0.006915641224220776">
        <route edges="edge_109_6#3 edge_6_5#0 edge_6_5#1 edge_6_5#2 edge_6_5#3 edge_6_5#4 edge_5_6#3 edge_5_6#4 edge_6_104#0 edge_6_104#1"/>
    </flow>
    <flow id="279" begin="12.84" end="3578.50" probability="0.025521240461568038">
        <route edges="edge_2_1#10 edge_1_101#0 edge_1_101#1 edge_1_101#2 edge_1_101#3 edge_1_101#4 -41208868#6 -41208868#3 -41208868#2 -41208868#1 -41208868#0 -100317222#10 -41205233#5 41205233#5 41205233#6 41208868#0 -41209072#3 -41209072#2 -41209074#0 41209072#3 41208868#1 41208868#2 41205375#8 41205375#9 32868405#1 41212177#0 -41212177#0 -32868405#2 -41205375#9 -41205375#8 41208868#3 41208868#6 edge_1_101#5"/>
    </flow>
    <flow id="240" begin="13.74" end="2905.09" probability="0.005187891620188856">
        <route edges="edge_1_2#12 edge_2_5#0 edge_2_5#1 -130655020#7 -130655325#1 130655214#5 edge_6_5#5 edge_6_5#6 edge_6_5#8 edge_5_6#1 edge_5_6#2 edge_5_6#3 edge_5_6#4 edge_6_104#0 edge_6_104#1"/>
    </flow>
    <flow id="442" begin="14.33" end="3528.63" probability="0.025325152012992853">
        <route edges="edge_4_3#2 edge_3_107#0 edge_3_107#1 edge_3_107#2"/>
    </flow>
    <flow id="430" begin="14.63" end="3591.04" probability="0.019013489942849363">
        <route edges="edge_4_1#3 edge_1_102#0 edge_1_102#1 edge_1_102#2 edge_1_102#3 41212224#5 -41212224#5 edge_1_102#4"/>
    </flow>
    <flow id="11" begin="15.23" end="3558.49" probability="0.033302664231869006">
        <route edges="edge_101_1#5 edge_1_2#0 edge_1_2#1 41205287#1 41205287#2 -gneE66 32868406#2 -32868406#4 -41209074#1 -41209074#0 41209072#3 -41208868#0 41208868#0 41208868#1 -41212173#1 -41212224#0 -41212177#0 32868405#3 -32868405#3 41212177#0 41212224#0 41212224#1 -41212224#1 41212173#0 41208868#2 -41205375#7 -41208590#1 32868406#5 -32868406#5 41208590#1 41205375#5 41208868#3 edge_102_1#2 edge_102_1#3 32868406#9 gneE79"/>
    </flow>
    <flow id="461" begin="15.53" end="3350.94" probability="0.005396633539260652">
        <route edges="edge_5_2#5 edge_2_1#0 edge_2_1#1 edge_2_1#2 edge_2_1#3 edge_1_2#7 edge_1_2#8 edge_1_2#9 edge_1_2#10 edge_1_2#11 ramp_2_NW edge_2_103#1 edge_2_103#2 edge_2_103#3 edge_2_103#4"/>
    </flow>
    <flow id="506" begin="15.83" end="3518.77" probability="0.01398823055792417">
        <route edges="edge_7_8#6 edge_8_9#0 edge_8_9#1 edge_8_9#2 edge_8_9#3 289430973#0"/>
    </flow>
    <flow id="301" begin="16.13" end="3598.51" probability="0.00977003908710347">
        <route edges="edge_2_1#10 edge_1_102#0 edge_1_102#1 -32868406#6 41205375#4 41205375#5 41205375#8 -41212224#1 41212173#0 -41208868#1 41208868#1 -41212173#1 -41212224#0 41212224#0 41212224#1 41212224#2 edge_1_102#4"/>
    </flow>
    <flow id="351" begin="16.72" end="2990.19" probability="0.002017843393257749">
        <route edges="edge_3_4#4 edge_4_1#0 edge_4_1#1 edge_4_1#2 ramp_1_NE edge_1_101#1 edge_1_101#2 edge_1_101#3 -32868406#9 edge_102_1#4 ramp_1_SW edge_1_2#1 41205287#1 41205287#2 41205274#0 -41205274#1 -gneE66 -41209074#1 -41209074#0 41209072#3 41208868#1 -41212173#1 -41212224#0 41212224#0 41212224#1 41205375#9 -41205375#9 41212224#2 41212224#5 -41212224#5 -41212224#2 -41205375#8 -41208868#2 -41208868#1 -41209072#3 41209074#0 41209072#0 -41209072#2 41209074#1 32868406#2 -32868406#4 -gneE65 -41205287#3 -41205375#1 -41205375#0 41205375#0 41205375#1 41205375#2 32868406#6 32868406#9 gneE79"/>
    </flow>
    <flow id="447" begin="17.32" end="3594.33" probability="0.0693317378156275">
        <route edges="edge_5_2#5 edge_2_1#0 edge_2_1#1 edge_2_1#2 edge_2_1#3 41205233#1 -41205233#1 edge_2_1#4 edge_2_1#5 edge_2_1#6 41205377 -41205375#0 -41205233#2"/>
    </flow>
    <flow id="134" begin="17.62" end="3579.39" probability="0.03312954733890549">
        <route edges="edge_104_6#1 edge_6_5#0 edge_6_5#1 edge_6_5#2 edge_6_5#3 edge_6_5#4 edge_6_5#5 edge_6_5#6 edge_6_5#8 edge_6_5#9 edge_110_5#0"/>
    </flow>
    <flow id="391" begin="17.92" end="2920.32" probability="0.002411799339209655">
        <route edges="edge_3_9#5 edge_9_8#0 edge_9_8#1 edge_9_8#2 edge_9_8#3 ramp_8_NW edge_8_7#1 edge_8_7#2 edge_8_7#3 edge_7_6#0 edge_7_6#1 edge_7_6#2 edge_7_6#3 edge_7_6#4 edge_7_6#5 ramp_6_NE edge_6_5#1 edge_6_5#2 edge_6_5#3 edge_6_5#4 edge_6_5#5 edge_6_5#6 edge_5_6#2 edge_5_6#3 edge_5_6#4 edge_6_104#0 edge_6_104#1"/>
    </flow>
    <flow id="503" begin="18.22" end="3541.17" probability="0.003690085991730614">
        <route edges="edge_7_8#6 edge_8_106#0 139400810 -139400810 edge_106_8#12 edge_106_8#13 edge_106_8#14 edge_8_105#0 edge_8_105#1 edge_105_8#7 edge_105_8#8 edge_105_8#9 edge_8_9#0 edge_8_9#1 edge_8_9#2 edge_8_9#3 289430973#0"/>
    </flow>
    <flow id="287" begin="18.52" end="3593.43" probability="0.02545515087387206">
        <route edges="edge_2_1#10 edge_1_101#0 edge_1_101#1 edge_1_101#2 edge_1_101#3 edge_1_101#4 edge_1_101#5"/>
    </flow>
    <flow id="414" begin="18.81" end="3598.21" probability="0.01899762686096813">
        <route edges="edge_4_1#3 edge_1_102#0 edge_1_102#1 32868406#9 edge_1_101#4 edge_1_101#5"/>
    </flow>
    <flow id="288" begin="19.41" end="3495.18" probability="0.026181253639584363">
        <route edges="edge_2_1#10 edge_1_101#0 edge_1_101#1 edge_1_101#2 edge_1_101#3 gneE79"/>
    </flow>
    <flow id="15" begin="20.01" end="3512.50" probability="0.00343594128544975">
        <route edges="edge_101_1#5 edge_1_2#0 edge_1_2#1 41205287#1 41205287#2 41205274#0 41205233#6 -100317222#10 -41205274#1 -gneE66 -41209074#1 41209072#0 41209074#0 41209074#1 -gneE65 -41205287#3 41205375#2 -41205375#3 -41205375#1 41205375#1 -41205287#1 edge_1_2#2 edge_1_2#3 41205377 -41205375#0 41205375#0 -41205377 edge_1_2#4 edge_1_2#5 edge_1_2#6 edge_2_1#4 -41205403#2 -41205403#1 edge_3_4#3 edge_3_4#4 edge_4_1#0 edge_4_1#1 edge_4_1#2 ramp_1_NE edge_1_101#1 edge_1_101#2 edge_1_101#3 edge_1_101#4 edge_1_101#5"/>
    </flow>
    <flow id="577" begin="20.90" end="3591.34" probability="0.010362881491394757">
        <route edges="edge_9_8#4 edge_8_105#0 edge_8_105#1 edge_105_8#7 edge_105_8#8 edge_105_8#9 edge_8_9#0 edge_8_9#1 edge_8_9#2 edge_8_9#3 289430973#0"/>
    </flow>
    <flow id="176" begin="21.20" end="3572.23" probability="0.0312585849241735">
        <route edges="edge_107_3#2 ramp_3_NE edge_3_4#1 edge_3_4#2 41205403#1 41205403#2 edge_2_1#5 edge_2_1#6 41205377 -41205375#0 41205233#3 -41205233#4 -41205233#2 -41205233#1 edge_1_2#7 edge_1_2#8 edge_1_2#9 edge_1_2#10 edge_1_2#11 ramp_2_NW edge_2_103#1 edge_2_103#2 edge_2_103#3 edge_2_103#4"/>
    </flow>
    <flow id="341" begin="22.99" end="3584.17" probability="0.013759492196599625">
        <route edges="edge_3_4#4 edge_4_1#0 edge_1_4#3 edge_4_3#0 41205403#1 41205403#2 edge_2_1#5 edge_2_1#6 edge_1_2#4 edge_1_2#5 -41205403#2 -41205403#1 edge_3_4#3"/>
    </flow>
    <flow id="384" begin="23.89" end="3519.37" probability="0.0074381793155824105">
        <route edges="edge_3_9#5 edge_9_8#0 edge_9_8#1 edge_9_8#2 edge_9_8#3 ramp_8_NW edge_8_7#1 edge_8_7#2 edge_8_7#3 edge_7_6#0 edge_7_6#1 edge_7_6#2 289432764"/>
    </flow>
    <flow id="81" begin="24.19" end="3578.80" probability="0.008439749082864578">
        <route edges="edge_103_2#4 ramp_2_SW edge_2_5#1 edge_2_5#2 edge_2_5#3 edge_110_5#0"/>
    </flow>
    <flow id="129" begin="25.09" end="3561.78" probability="0.033364528507230075">
        <route edges="edge_104_6#1 edge_6_5#0 edge_6_5#1 edge_6_5#2 edge_6_5#3 edge_6_5#4 edge_6_5#5 edge_6_5#6 edge_6_5#8 edge_5_6#1 edge_5_6#2 -130655214#5 -130655214#4 130655057#3 -130655020#5 -130655020#4 -130655171#3 -130655297 130655297 -130655171#2 130655214#2 130655139 130655020#5 130655020#6 130655020#7 edge_2_5#2 edge_2_5#3 edge_110_5#0"/>
    </flow>
    <flow id="246" begin="26.28" end="3307.64" probability="0.004571274723941438">
        <route edges="edge_1_2#12 edge_2_5#0 edge_2_5#1 edge_2_5#2 edge_2_5#3 edge_5_6#0 edge_5_6#1 edge_5_6#2 edge_5_6#3 edge_5_6#4 edge_6_104#0 edge_6_104#1"/>
    </flow>
    <flow id="82" begin="26.58" end="3341.68" probability="0.004826392016735408">
        <route edges="edge_103_2#5 edge_2_1#0 edge_2_1#1 edge_1_2#8 edge_1_2#9 edge_1_2#10 edge_1_2#11 ramp_2_NW edge_2_103#1 edge_2_103#2 edge_2_103#3 edge_2_103#4"/>
    </flow>
    <flow id="167" begin="28.37" end="2867.46" probability="0.0028178067622688413">
        <route edges="edge_106_8#14 edge_8_7#0 edge_8_7#1 edge_8_7#2 edge_8_7#3 edge_7_6#0 edge_7_6#1 edge_7_6#2 edge_7_6#3 edge_7_6#4 edge_7_6#5 ramp_6_NE edge_6_5#1 edge_6_5#2 edge_6_5#3 edge_6_5#4 -130655214#5 -130655214#4 -130655214#3 -130655214#2 130655214#2 130655139 -130655141 130655214#3 130655057#3 -130655020#5 -130655020#4 130655020#2 130655020#5 130655020#6 -130655325#1 130655214#5 edge_6_5#5 edge_6_5#6 edge_5_6#2 edge_5_6#3 edge_5_6#4 edge_6_104#0 edge_6_104#1"/>
    </flow>
    <flow id="465" begin="28.67" end="2995.27" probability="0.004045030534863581">
        <route edges="edge_5_2#5 edge_2_1#0 edge_2_1#1 edge_2_1#2 edge_2_1#3 edge_2_1#4 edge_2_1#5 edge_2_1#6 edge_1_2#4 edge_1_2#5 -41205403#2 -41205403#1 edge_3_4#3 edge_3_4#4 edge_4_1#0 edge_4_1#1 edge_4_1#2 ramp_1_NE edge_1_101#1 edge_1_101#2 edge_1_101#3 edge_1_101#4 -41208868#6 -41208868#3 41205375#8 41205375#9 32868405#1 41212177#0 -41212177#0 -32868405#2 -32868405#0 32868405#0 -41205375#9 41212224#2 edge_1_102#4"/>
    </flow>
    <flow id="42" begin="28.97" end="3389.17" probability="0.002380811312556868">
        <route edges="edge_101_1#5 edge_1_4#0 edge_1_4#1 edge_1_4#2 edge_1_4#3 edge_4_108#0 edge_4_108#1 edge_4_108#2 edge_108_4#4 -155378620#0 155378620#0 edge_108_4#5 edge_108_4#6 -32868409#2 -32868409#1 edge_2_1#7 edge_2_1#8 edge_2_1#9 ramp_1_SE"/>
    </flow>
    <flow id="422" begin="29.27" end="3596.72" probability="0.019061238536377364">
        <route edges="edge_4_1#3 edge_1_102#0 edge_1_102#1 edge_1_102#2 -41208868#3 41208868#3 edge_1_102#3 edge_1_102#4"/>
    </flow>
    <flow id="286" begin="29.86" end="3581.19" probability="0.025624252532048638">
        <route edges="edge_2_1#10 edge_1_101#0 edge_1_101#1 edge_1_101#2 edge_1_101#3 edge_1_101#4 -41208868#6 edge_1_102#3 edge_1_102#4"/>
    </flow>
    <flow id="316" begin="30.46" end="3588.05" probability="0.18298882173536593">
        <route edges="edge_2_3#5 edge_3_107#0 edge_3_107#1 edge_3_107#2"/>
    </flow>
    <flow id="106" begin="31.06" end="3591.94" probability="0.033137882515190016">
        <route edges="edge_104_6#1 edge_6_5#0 edge_6_5#1 edge_6_5#2 edge_6_5#3 edge_6_5#4 -130655214#5 -130655278 -130655057#0 edge_6_109#2 -130655171#0 130655171#0 130655171#1 130655171#2 -130655297 130655195#1 -130655195#1 130655297 130655171#3 -130655020#1 -130655020#0 130655020#0 130655020#1 130655020#2 -130655020#4 -130655171#3 -130655171#2 130655214#2 130655139 130655020#5 130655020#6 130655020#7 edge_2_5#2 edge_2_5#3 edge_110_5#0"/>
    </flow>
    <flow id="84" begin="31.36" end="3565.06" probability="0.056880827628949415">
        <route edges="edge_103_2#5 edge_2_1#0 edge_2_1#1 edge_2_1#2 edge_2_1#3 41205233#1 41205233#2 -41205233#2 -41205233#1 edge_2_1#4 edge_2_1#5 edge_2_1#6 edge_2_1#7 edge_2_1#8 41205287#1 41205287#2 41205274#0 41205233#6 -100317222#10 -41205233#5 41205233#5 -41205274#1 -41205287#3 41205375#2 32868406#6 32868406#9 gneE79"/>
    </flow>
    <flow id="462" begin="31.95" end="3323.17" probability="0.005469104436984143">
        <route edges="edge_5_2#5 edge_2_1#0 edge_2_1#1 edge_2_1#2 edge_2_1#3 edge_2_1#4 edge_1_2#6 edge_1_2#7 edge_1_2#8 edge_1_2#9 edge_1_2#10 edge_1_2#11 ramp_2_NW edge_2_103#1 edge_2_103#2 edge_2_103#3 edge_2_103#4"/>
    </flow>
    <flow id="268" begin="33.45" end="3429.18" probability="0.026798312471297374">
        <route edges="edge_2_1#10 edge_1_101#0 edge_1_101#1 edge_1_101#2 edge_1_101#3 -32868406#9 -32868406#6 -41205375#3 41205287#2 41205274#0 -41205233#5 -41205233#4 41205233#3 41205233#5 -41205274#1 -gneE66 32868406#2 41208590#1 -41205375#4 32868406#6 32868406#9 gneE79"/>
    </flow>
    <flow id="150" begin="34.04" end="3594.62" probability="0.0308938373079121">
        <route edges="edge_105_8#9 edge_8_7#0 edge_8_7#1 edge_8_7#2 edge_8_7#3 edge_7_6#0 edge_7_6#1 edge_7_6#2 289432764"/>
    </flow>
    <flow id="426" begin="35.54" end="3536.39" probability="0.01942382969850414">
        <route edges="edge_4_1#3 edge_1_102#0 edge_1_102#1 edge_1_102#2 41208868#6 edge_1_101#5"/>
    </flow>
    <flow id="553" begin="35.84" end="3492.19" probability="0.0034718622199183366">
        <route edges="edge_9_3#5 edge_3_4#0 edge_3_4#1 edge_3_4#2 edge_3_4#3 edge_3_4#4 edge_4_1#0 edge_4_1#1 edge_4_1#2 ramp_1_NE edge_1_101#1 edge_1_101#2 edge_1_101#3 edge_1_101#4 -41208868#6 edge_102_1#2 edge_102_1#3 edge_1_102#2 edge_1_102#3 -41212224#2 -41205375#8 41208868#3 41208868#6 edge_1_101#5"/>
    </flow>
    <flow id="110" begin="37.03" end="3055.89" probability="0.004968757213044666">
        <route edges="edge_104_6#1 edge_6_5#0 edge_6_5#1 edge_6_5#2 edge_6_5#3 edge_6_5#4 -130655214#5 130655214#5 edge_5_6#3 edge_5_6#4 edge_6_104#0 edge_6_104#1"/>
    </flow>
    <flow id="280" begin="39.72" end="3588.35" probability="0.02564365994371139">
        <route edges="edge_2_1#10 edge_1_101#0 edge_1_101#1 edge_1_101#2 edge_1_101#3 edge_1_101#4 -41208868#6 -41208868#3 41205375#8 41205375#9 -32868405#0 32868405#0 -41205375#9 -41212224#1 41212224#1 41212224#2 edge_102_1#1 edge_1_102#3 edge_1_102#4"/>
    </flow>
    <flow id="423" begin="40.32" end="3557.30" probability="0.01933476739030008">
        <route edges="edge_4_1#3 edge_1_102#0 edge_1_102#1 edge_1_102#2 41208868#6 -41208868#6 -41208868#3 41205375#8 41205375#9 -32868405#0 32868405#0 32868405#1 41212177#0 41212224#0 41212173#0 41208868#2 -41208868#2 -41208868#1 -41209072#3 41209072#3 41208868#1 -41212173#1 41212224#1 -41205375#8 -41205375#7 -41208590#1 32868406#5 32868406#6 32868406#9 gneE79"/>
    </flow>
    <flow id="112" begin="41.51" end="3557.00" probability="0.004266833729754379">
        <route edges="edge_104_6#1 edge_6_5#0 edge_6_5#1 edge_6_5#2 edge_6_5#3 edge_6_5#4 -130655214#5 130655214#5 edge_6_5#5 edge_6_5#6 edge_6_5#8 edge_5_6#1 edge_5_6#2 edge_5_6#3 edge_5_6#4 edge_6_104#0 edge_6_104#1"/>
    </flow>
    <flow id="274" begin="42.70" end="3568.05" probability="0.025813097086922702">
        <route edges="edge_2_1#10 edge_1_101#0 edge_1_101#1 edge_1_101#2 edge_1_101#3 -32868406#9 edge_1_102#2 -41208868#3 -41208868#2 -41212173#1 41212224#1 -41212224#1 41212173#0 41208868#2 41205375#8 41205375#9 32868405#1 -32868405#2 -41205375#9 -41205375#8 41208868#3 41208868#6 -41208868#6 edge_102_1#2 edge_102_1#3 32868406#9 gneE79"/>
    </flow>
    <flow id="25" begin="43.00" end="3562.37" probability="0.03352873238108832">
        <route edges="edge_101_1#5 edge_1_2#0 edge_1_2#1 41205287#1 41205375#2 41205375#4 -41208590#1 -32868406#4 -41209074#1 -41209074#0 -41209072#2 41209074#1 32868406#2 41208590#1 41205375#5 -41205375#7 -41205375#4 -41205375#3 -41205287#1 edge_1_2#2 edge_1_2#3 41205377 41205375#1 41205287#2 41205274#0 -41205233#5 41205233#5 41205233#6 100317222#11 -32868405#3 -32868405#2 -32868405#0 32868405#0 -41205375#9 41212224#2 edge_1_102#4"/>
    </flow>
    <flow id="118" begin="43.30" end="3582.38" probability="0.0333420058316704">
        <route edges="edge_104_6#1 edge_6_5#0 edge_6_5#1 edge_6_5#2 edge_6_5#3 edge_6_5#4 -130655214#5 130655325#0 130655020#7 edge_2_5#2 edge_2_5#3 edge_110_5#0"/>
    </flow>
    <flow id="136" begin="44.50" end="3443.22" probability="0.004413422956389469">
        <route edges="edge_104_6#1 edge_6_5#0 edge_6_5#1 edge_6_5#2 edge_6_5#3 edge_6_5#4 edge_6_5#5 edge_6_5#6 edge_6_5#8 edge_6_5#9 edge_5_2#0 edge_5_2#1 edge_5_2#2 -130655020#7 -130655325#1 130655214#5 edge_5_6#3 edge_5_6#4 edge_6_104#0 edge_6_104#1"/>
    </flow>
    <flow id="61" begin="45.69" end="3027.23" probability="0.00402477297008562">
        <route edges="edge_102_1#4 ramp_1_SW edge_1_2#1 edge_1_2#2 edge_1_2#3 edge_2_1#7 edge_2_1#8 41205287#1 -41205287#1"/>
    </flow>
    <flow id="92" begin="46.29" end="3568.64" probability="0.0025551080966512187">
        <route edges="edge_104_6#1 edge_6_109#0 edge_6_109#1 130655057#0 130655278 -130655214#4 -130655214#3 -130655214#2 130655214#2 130655139 -130655141 130655214#3 130655057#3 -130655020#5 -130655020#4 -130655171#3 -130655171#2 130655171#2 -130655297 130655195#1 -130655020#0 130655020#0 130655020#1 130655020#2 130655020#5 130655020#6 -130655325#1 130655325#0 -130655020#6 -130655057#5 130655214#4 130655214#5 edge_5_6#3 edge_5_6#4 edge_6_104#0 edge_6_104#1"/>
    </flow>
    <flow id="574" begin="47.78" end="3545.95" probability="0.010576968679453281">
        <route edges="edge_9_8#4 edge_8_105#0 edge_8_105#1 139283095#1 139283095#3 139283094#0 139283094#1 -139283304#2 -139283304#1 -139283095#3 -139283095#2 edge_105_8#7 edge_105_8#8 edge_105_8#9 edge_8_9#0 edge_8_9#1 edge_8_9#2 edge_8_9#3 289430973#0"/>
    </flow>
    <flow id="495" begin="48.98" end="3165.49" probability="0.0019252267790980657">
        <route edges="edge_7_6#5 ramp_6_NE edge_6_5#1 edge_6_5#2 edge_6_5#3 edge_6_5#4 edge_5_6#3 edge_5_6#4 edge_6_104#0 edge_6_104#1"/>
    </flow>
    <flow id="278" begin="49.87" end="3505.04" probability="0.026337390761549048">
        <route edges="edge_2_1#10 edge_1_101#0 edge_1_101#1 edge_1_101#2 edge_1_101#3 edge_1_101#4 -41208868#6 -41208868#3 -41205375#7 -41205375#4 32868406#6 32868406#9 gneE79"/>
    </flow>
    <flow id="415" begin="51.07" end="3507.13" probability="0.019675585894371735">
        <route edges="edge_4_1#3 edge_1_102#0 edge_1_102#1 32868406#9 gneE79"/>
    </flow>
    <flow id="425" begin="51.96" end="3589.55" probability="0.0192221471851734">
        <route edges="edge_4_1#3 edge_1_102#0 edge_1_102#1 edge_1_102#2 41208868#6 edge_101_1#2 gneE79"/>
    </flow>
    <flow id="234" begin="52.86" end="3539.38" probability="0.028681893885321084">
        <route edges="edge_1_2#12 edge_2_5#0 edge_2_5#1 -130655020#7 -130655020#6 -130655057#5 130655057#3 130655020#6 130655020#7 edge_2_5#2 edge_2_5#3 edge_110_5#0"/>
    </flow>
    <flow id="342" begin="56.44" end="3509.81" probability="0.014189030131827273">
        <route edges="edge_3_4#4 edge_4_1#0 edge_1_4#3 edge_4_3#0 edge_3_4#3"/>
    </flow>
    <flow id="165" begin="57.93" end="2888.96" probability="0.0028258321612753047">
        <route edges="edge_106_8#14 edge_8_105#0 edge_8_105#1 139283095#1 139283095#3 139283304#1 139283304#2 -139283275#6 -139283275#5 -139284206#2 -139284206#1 139284206#1 139284206#2 -139283275#3 -139283275#0 139284054#3 139284054#4 -139284058#7 -139284058#6 139284058#6 139284058#7 -139284054#4 -139284054#3 139283277#2 edge_8_105#4 edge_8_105#5 139283286#1 139283286#3 -139283249#9 139283249#9 -139283286#3 -139283286#2 -139283287#1 139284206#7 139284206#8 -139284206#8 -139284206#7 -139284206#5 -139284206#4 139283275#5 139283275#6 -139283304#2 -139283304#1 139283094#0 139283094#1 139283275#8 -139283094#0 -139283095#3 -139283095#2 -139284058#9 139284058#8 edge_8_105#2 edge_8_105#3 139283275#2 139284206#4 139284206#5 139283287#0 edge_8_105#6 edge_8_105#7 edge_8_105#8 edge_8_105#9 -139283285#5 -139283285#3 139283285#3 139283285#4 edge_105_8#1 139284193#2 -139284193#2 edge_105_8#2 edge_105_8#3 edge_105_8#4 edge_105_8#5 edge_105_8#6 edge_105_8#7 edge_105_8#8 edge_105_8#9 edge_8_9#0 edge_8_9#1 edge_8_9#2 edge_8_9#3 289430973#0"/>
    </flow>
    <flow id="571" begin="60.32" end="3523.25" probability="0.010684599095473937">
        <route edges="edge_9_8#4 edge_8_105#0 edge_8_105#1 -139284058#9 139284058#8 139283095#1 139284206#1 139284206#2 -139283275#3 139283275#2 -139284206#2 -139284206#1 139283095#3 139283304#1 139283304#2 -139283275#6 -139283275#5 139284206#4 139284206#5 -139283288#0 -139283305#3 -139283305#1 -139283305#0 139283305#0 139283305#1 139283305#3 139283305#4 -139284206#5 -139284206#4 139283275#5 139283275#6 139283275#8 -139283094#0 -139283095#3 -139283095#2 edge_105_8#7 edge_105_8#8 edge_105_8#9 edge_8_9#0 edge_8_9#1 edge_8_9#2 edge_8_9#3 289430973#0"/>
    </flow>
    <flow id="163" begin="60.92" end="3356.62" probability="0.00455139241271009">